/*---------------------------------------------------------------------------*\
  =========                 |
  \\      /  F ield         | OpenFOAM: The Open Source CFD Toolbox
   \\    /   O peration     | Website:  https://openfoam.org
    \\  /    A nd           | Version:  7
     \\/     M anipulation  |
\*---------------------------------------------------------------------------*/
Build  : 7-1ff648926f77
Exec   : simpleFoam
Date   : May 17 2020
Time   : 12:45:51
Host   : "agp"
PID    : 2259
I/O    : uncollated
Case   : /home/agp/Desktop/INM707-Assessment/DQN/airFoil2D
nProcs : 1
sigFpe : Enabling floating point exception trapping (FOAM_SIGFPE).
fileModificationChecking : Monitoring run-time modified files using timeStampMaster (fileModificationSkew 10)
allowSystemOperations : Allowing user-supplied system call operations

// * * * * * * * * * * * * * * * * * * * * * * * * * * * * * * * * * * * * * //
Create time

Create mesh for time = 0


SIMPLE: Convergence criteria found
        p: tolerance 1e-05
        U: tolerance 1e-05
        nuTilda: tolerance 1e-05

Reading field p

Reading field U

Reading/calculating face flux field phi

Selecting incompressible transport model Newtonian
Selecting turbulence model type RAS
Selecting RAS turbulence model SpalartAllmaras
Selecting patchDistMethod meshWave
RAS
{
    RASModel        SpalartAllmaras;
    turbulence      on;
    printCoeffs     on;
    sigmaNut        0.66666;
    kappa           0.41;
    Cb1             0.1355;
    Cb2             0.622;
    Cw2             0.3;
    Cw3             2;
    Cv1             7.1;
    Cs              0.3;
}

No MRF models present

No finite volume options present

Starting time loop

forces forces:
    Not including porosity effects
forceCoeffs forces:
    Not including porosity effects
Time = 1

smoothSolver:  Solving for Ux, Initial residual = 1, Final residual = 0.0247344, No Iterations 4
smoothSolver:  Solving for Uy, Initial residual = 1, Final residual = 0.0873408, No Iterations 2
GAMG:  Solving for p, Initial residual = 1, Final residual = 0.0772032, No Iterations 7
time step continuity errors : sum local = 0.0282209, global = 0.00900918, cumulative = 0.00900918
smoothSolver:  Solving for nuTilda, Initial residual = 1, Final residual = 0.0413274, No Iterations 2
ExecutionTime = 0.08 s  ClockTime = 0 s

Time = 2

smoothSolver:  Solving for Ux, Initial residual = 0.637864, Final residual = 0.0466298, No Iterations 4
smoothSolver:  Solving for Uy, Initial residual = 0.624736, Final residual = 0.0465274, No Iterations 4
GAMG:  Solving for p, Initial residual = 0.674155, Final residual = 0.0650811, No Iterations 3
time step continuity errors : sum local = 0.0918591, global = 0.0155444, cumulative = 0.0245536
smoothSolver:  Solving for nuTilda, Initial residual = 0.159576, Final residual = 0.00298705, No Iterations 4
ExecutionTime = 0.09 s  ClockTime = 0 s

Time = 3

smoothSolver:  Solving for Ux, Initial residual = 0.226836, Final residual = 0.0166622, No Iterations 4
smoothSolver:  Solving for Uy, Initial residual = 0.257714, Final residual = 0.019312, No Iterations 4
GAMG:  Solving for p, Initial residual = 0.630851, Final residual = 0.0483931, No Iterations 5
time step continuity errors : sum local = 0.0936274, global = 0.0223906, cumulative = 0.0469442
smoothSolver:  Solving for nuTilda, Initial residual = 0.0672921, Final residual = 0.00233304, No Iterations 4
ExecutionTime = 0.11 s  ClockTime = 0 s

Time = 4

smoothSolver:  Solving for Ux, Initial residual = 0.0477906, Final residual = 0.00307805, No Iterations 4
smoothSolver:  Solving for Uy, Initial residual = 0.050765, Final residual = 0.00307583, No Iterations 4
GAMG:  Solving for p, Initial residual = 0.695837, Final residual = 0.0633896, No Iterations 4
time step continuity errors : sum local = 0.0886667, global = -0.0266254, cumulative = 0.0203189
smoothSolver:  Solving for nuTilda, Initial residual = 0.0464193, Final residual = 0.00210991, No Iterations 4
ExecutionTime = 0.13 s  ClockTime = 0 s

Time = 5

smoothSolver:  Solving for Ux, Initial residual = 0.220271, Final residual = 0.0161073, No Iterations 4
smoothSolver:  Solving for Uy, Initial residual = 0.260966, Final residual = 0.0193463, No Iterations 4
GAMG:  Solving for p, Initial residual = 0.659243, Final residual = 0.0378192, No Iterations 3
time step continuity errors : sum local = 0.0578656, global = 0.00420658, cumulative = 0.0245254
smoothSolver:  Solving for nuTilda, Initial residual = 0.037004, Final residual = 0.00187703, No Iterations 4
ExecutionTime = 0.14 s  ClockTime = 0 s

Time = 6

smoothSolver:  Solving for Ux, Initial residual = 0.271908, Final residual = 0.0199362, No Iterations 4
smoothSolver:  Solving for Uy, Initial residual = 0.351267, Final residual = 0.0261952, No Iterations 4
GAMG:  Solving for p, Initial residual = 0.657071, Final residual = 0.04298, No Iterations 5
time step continuity errors : sum local = 0.058904, global = -0.0148398, cumulative = 0.00968559
smoothSolver:  Solving for nuTilda, Initial residual = 0.0316097, Final residual = 0.00175006, No Iterations 4
ExecutionTime = 0.16 s  ClockTime = 0 s

Time = 7

smoothSolver:  Solving for Ux, Initial residual = 0.0974246, Final residual = 0.00637049, No Iterations 4
smoothSolver:  Solving for Uy, Initial residual = 0.121512, Final residual = 0.008001, No Iterations 4
GAMG:  Solving for p, Initial residual = 0.661013, Final residual = 0.0630406, No Iterations 4
time step continuity errors : sum local = 0.0653481, global = 0.0212104, cumulative = 0.030896
smoothSolver:  Solving for nuTilda, Initial residual = 0.02856, Final residual = 0.00163339, No Iterations 4
ExecutionTime = 0.18 s  ClockTime = 0 s

Time = 8

smoothSolver:  Solving for Ux, Initial residual = 0.183755, Final residual = 0.0134042, No Iterations 4
smoothSolver:  Solving for Uy, Initial residual = 0.201933, Final residual = 0.0148699, No Iterations 4
GAMG:  Solving for p, Initial residual = 0.587065, Final residual = 0.037956, No Iterations 3
time step continuity errors : sum local = 0.0493003, global = -0.00862353, cumulative = 0.0222725
smoothSolver:  Solving for nuTilda, Initial residual = 0.0234698, Final residual = 0.00132997, No Iterations 4
ExecutionTime = 0.19 s  ClockTime = 0 s

Time = 9

smoothSolver:  Solving for Ux, Initial residual = 0.109329, Final residual = 0.0079709, No Iterations 4
smoothSolver:  Solving for Uy, Initial residual = 0.127445, Final residual = 0.00943365, No Iterations 4
GAMG:  Solving for p, Initial residual = 0.610466, Final residual = 0.0449033, No Iterations 4
time step continuity errors : sum local = 0.0445127, global = -0.00692954, cumulative = 0.0153429
smoothSolver:  Solving for nuTilda, Initial residual = 0.0199077, Final residual = 0.00114185, No Iterations 4
ExecutionTime = 0.2 s  ClockTime = 0 s

Time = 10

smoothSolver:  Solving for Ux, Initial residual = 0.0393165, Final residual = 0.00269798, No Iterations 4
smoothSolver:  Solving for Uy, Initial residual = 0.0450351, Final residual = 0.00297588, No Iterations 4
GAMG:  Solving for p, Initial residual = 0.469471, Final residual = 0.0314694, No Iterations 4
time step continuity errors : sum local = 0.0323924, global = -0.00952698, cumulative = 0.00581595
smoothSolver:  Solving for nuTilda, Initial residual = 0.0183351, Final residual = 0.00108207, No Iterations 4
ExecutionTime = 0.22 s  ClockTime = 0 s

Time = 11

smoothSolver:  Solving for Ux, Initial residual = 0.0919268, Final residual = 0.00668832, No Iterations 4
smoothSolver:  Solving for Uy, Initial residual = 0.109503, Final residual = 0.00805591, No Iterations 4
GAMG:  Solving for p, Initial residual = 0.44968, Final residual = 0.0254611, No Iterations 3
time step continuity errors : sum local = 0.0311341, global = -0.00123156, cumulative = 0.00458438
smoothSolver:  Solving for nuTilda, Initial residual = 0.0172039, Final residual = 0.00103806, No Iterations 4
ExecutionTime = 0.23 s  ClockTime = 0 s

Time = 12

smoothSolver:  Solving for Ux, Initial residual = 0.0849684, Final residual = 0.00615158, No Iterations 4
smoothSolver:  Solving for Uy, Initial residual = 0.112336, Final residual = 0.00829182, No Iterations 4
GAMG:  Solving for p, Initial residual = 0.464564, Final residual = 0.0367395, No Iterations 4
time step continuity errors : sum local = 0.0335726, global = 0.0102875, cumulative = 0.0148719
smoothSolver:  Solving for nuTilda, Initial residual = 0.0160803, Final residual = 0.00100091, No Iterations 4
ExecutionTime = 0.25 s  ClockTime = 0 s

Time = 13

smoothSolver:  Solving for Ux, Initial residual = 0.0413669, Final residual = 0.00285026, No Iterations 4
smoothSolver:  Solving for Uy, Initial residual = 0.0577062, Final residual = 0.00395721, No Iterations 4
GAMG:  Solving for p, Initial residual = 0.506484, Final residual = 0.0446754, No Iterations 4
time step continuity errors : sum local = 0.0299594, global = 0.0100827, cumulative = 0.0249546
smoothSolver:  Solving for nuTilda, Initial residual = 0.0149586, Final residual = 0.000935732, No Iterations 4
ExecutionTime = 0.27 s  ClockTime = 0 s

Time = 14

smoothSolver:  Solving for Ux, Initial residual = 0.0637651, Final residual = 0.0046239, No Iterations 4
smoothSolver:  Solving for Uy, Initial residual = 0.076365, Final residual = 0.00555821, No Iterations 4
GAMG:  Solving for p, Initial residual = 0.495342, Final residual = 0.0321078, No Iterations 3
time step continuity errors : sum local = 0.025078, global = -0.00115736, cumulative = 0.0237973
smoothSolver:  Solving for nuTilda, Initial residual = 0.0134615, Final residual = 0.000843845, No Iterations 4
ExecutionTime = 0.28 s  ClockTime = 0 s

Time = 15

smoothSolver:  Solving for Ux, Initial residual = 0.0502407, Final residual = 0.00361868, No Iterations 4
smoothSolver:  Solving for Uy, Initial residual = 0.0579374, Final residual = 0.00420757, No Iterations 4
GAMG:  Solving for p, Initial residual = 0.50775, Final residual = 0.0253798, No Iterations 4
time step continuity errors : sum local = 0.0148006, global = -0.000624951, cumulative = 0.0231723
smoothSolver:  Solving for nuTilda, Initial residual = 0.0121517, Final residual = 0.000773133, No Iterations 4
ExecutionTime = 0.3 s  ClockTime = 0 s

Time = 16

smoothSolver:  Solving for Ux, Initial residual = 0.0251159, Final residual = 0.00174463, No Iterations 4
smoothSolver:  Solving for Uy, Initial residual = 0.0280182, Final residual = 0.00190143, No Iterations 4
GAMG:  Solving for p, Initial residual = 0.304412, Final residual = 0.0303078, No Iterations 3
time step continuity errors : sum local = 0.0233064, global = 0.00284308, cumulative = 0.0260154
smoothSolver:  Solving for nuTilda, Initial residual = 0.01134, Final residual = 0.000730218, No Iterations 4
ExecutionTime = 0.31 s  ClockTime = 0 s

Time = 17

smoothSolver:  Solving for Ux, Initial residual = 0.0333132, Final residual = 0.00241081, No Iterations 4
smoothSolver:  Solving for Uy, Initial residual = 0.0422923, Final residual = 0.00306578, No Iterations 4
GAMG:  Solving for p, Initial residual = 0.30976, Final residual = 0.0214657, No Iterations 3
time step continuity errors : sum local = 0.0176202, global = -0.00230029, cumulative = 0.0237151
smoothSolver:  Solving for nuTilda, Initial residual = 0.0107773, Final residual = 0.000702095, No Iterations 4
ExecutionTime = 0.33 s  ClockTime = 0 s

Time = 18

smoothSolver:  Solving for Ux, Initial residual = 0.0301911, Final residual = 0.00215415, No Iterations 4
smoothSolver:  Solving for Uy, Initial residual = 0.0431514, Final residual = 0.0031407, No Iterations 4
GAMG:  Solving for p, Initial residual = 0.300621, Final residual = 0.0196896, No Iterations 4
time step continuity errors : sum local = 0.0129968, global = 0.00398893, cumulative = 0.027704
smoothSolver:  Solving for nuTilda, Initial residual = 0.0102797, Final residual = 0.000677605, No Iterations 4
ExecutionTime = 0.35 s  ClockTime = 0 s

Time = 19

smoothSolver:  Solving for Ux, Initial residual = 0.0212, Final residual = 0.00147961, No Iterations 4
smoothSolver:  Solving for Uy, Initial residual = 0.031143, Final residual = 0.00218584, No Iterations 4
GAMG:  Solving for p, Initial residual = 0.360569, Final residual = 0.0307822, No Iterations 4
time step continuity errors : sum local = 0.0138628, global = 0.00475775, cumulative = 0.0324618
smoothSolver:  Solving for nuTilda, Initial residual = 0.00977086, Final residual = 0.000649193, No Iterations 4
ExecutionTime = 0.36 s  ClockTime = 0 s

Time = 20

smoothSolver:  Solving for Ux, Initial residual = 0.0250615, Final residual = 0.00178602, No Iterations 4
smoothSolver:  Solving for Uy, Initial residual = 0.0302383, Final residual = 0.00219136, No Iterations 4
GAMG:  Solving for p, Initial residual = 0.360188, Final residual = 0.029255, No Iterations 3
time step continuity errors : sum local = 0.0138948, global = -0.000961549, cumulative = 0.0315003
smoothSolver:  Solving for nuTilda, Initial residual = 0.00924726, Final residual = 0.000616227, No Iterations 4
ExecutionTime = 0.38 s  ClockTime = 0 s

Time = 21

smoothSolver:  Solving for Ux, Initial residual = 0.0228687, Final residual = 0.0016305, No Iterations 4
smoothSolver:  Solving for Uy, Initial residual = 0.0225282, Final residual = 0.00159838, No Iterations 4
GAMG:  Solving for p, Initial residual = 0.30264, Final residual = 0.0281961, No Iterations 3
time step continuity errors : sum local = 0.0126907, global = -0.00224526, cumulative = 0.029255
smoothSolver:  Solving for nuTilda, Initial residual = 0.00875167, Final residual = 0.000583294, No Iterations 4
ExecutionTime = 0.39 s  ClockTime = 0 s

Time = 22

smoothSolver:  Solving for Ux, Initial residual = 0.0166696, Final residual = 0.00117501, No Iterations 4
smoothSolver:  Solving for Uy, Initial residual = 0.0151718, Final residual = 0.00103086, No Iterations 4
GAMG:  Solving for p, Initial residual = 0.188059, Final residual = 0.017948, No Iterations 3
time step continuity errors : sum local = 0.0109552, global = 0.00171853, cumulative = 0.0309735
smoothSolver:  Solving for nuTilda, Initial residual = 0.00835835, Final residual = 0.000557175, No Iterations 4
ExecutionTime = 0.4 s  ClockTime = 0 s

Time = 23

smoothSolver:  Solving for Ux, Initial residual = 0.0132382, Final residual = 0.000932282, No Iterations 4
smoothSolver:  Solving for Uy, Initial residual = 0.0172274, Final residual = 0.00122031, No Iterations 4
GAMG:  Solving for p, Initial residual = 0.172808, Final residual = 0.0138175, No Iterations 3
time step continuity errors : sum local = 0.00896763, global = -0.00129204, cumulative = 0.0296815
smoothSolver:  Solving for nuTilda, Initial residual = 0.00807097, Final residual = 0.000539863, No Iterations 4
ExecutionTime = 0.42 s  ClockTime = 0 s

Time = 24

smoothSolver:  Solving for Ux, Initial residual = 0.01249, Final residual = 0.000869073, No Iterations 4
smoothSolver:  Solving for Uy, Initial residual = 0.0204223, Final residual = 0.00146897, No Iterations 4
GAMG:  Solving for p, Initial residual = 0.16006, Final residual = 0.0125807, No Iterations 3
time step continuity errors : sum local = 0.00727937, global = -0.00118778, cumulative = 0.0284937
smoothSolver:  Solving for nuTilda, Initial residual = 0.0078585, Final residual = 0.000526556, No Iterations 4
ExecutionTime = 0.43 s  ClockTime = 0 s

Time = 25

smoothSolver:  Solving for Ux, Initial residual = 0.0125623, Final residual = 0.000872576, No Iterations 4
smoothSolver:  Solving for Uy, Initial residual = 0.0188454, Final residual = 0.00134437, No Iterations 4
GAMG:  Solving for p, Initial residual = 0.170863, Final residual = 0.0106665, No Iterations 4
time step continuity errors : sum local = 0.00500656, global = 0.00155015, cumulative = 0.0300439
smoothSolver:  Solving for nuTilda, Initial residual = 0.00765517, Final residual = 0.000513788, No Iterations 4
ExecutionTime = 0.45 s  ClockTime = 0 s

Time = 26

smoothSolver:  Solving for Ux, Initial residual = 0.01289, Final residual = 0.000901715, No Iterations 4
smoothSolver:  Solving for Uy, Initial residual = 0.0146796, Final residual = 0.00105115, No Iterations 4
GAMG:  Solving for p, Initial residual = 0.193258, Final residual = 0.0172685, No Iterations 3
time step continuity errors : sum local = 0.00685832, global = -0.00106052, cumulative = 0.0289833
smoothSolver:  Solving for nuTilda, Initial residual = 0.00744362, Final residual = 0.000499765, No Iterations 4
ExecutionTime = 0.47 s  ClockTime = 0 s

Time = 27

smoothSolver:  Solving for Ux, Initial residual = 0.0128488, Final residual = 0.000901955, No Iterations 4
smoothSolver:  Solving for Uy, Initial residual = 0.0102962, Final residual = 0.000711007, No Iterations 4
GAMG:  Solving for p, Initial residual = 0.151191, Final residual = 0.0109876, No Iterations 3
time step continuity errors : sum local = 0.00480075, global = -0.000119131, cumulative = 0.0288642
smoothSolver:  Solving for nuTilda, Initial residual = 0.00721388, Final residual = 0.00048489, No Iterations 4
ExecutionTime = 0.48 s  ClockTime = 0 s

Time = 28

smoothSolver:  Solving for Ux, Initial residual = 0.0114609, Final residual = 0.000805259, No Iterations 4
smoothSolver:  Solving for Uy, Initial residual = 0.00798865, Final residual = 0.00054394, No Iterations 4
GAMG:  Solving for p, Initial residual = 0.110653, Final residual = 0.00868495, No Iterations 3
time step continuity errors : sum local = 0.00441376, global = 0.000700676, cumulative = 0.0295649
smoothSolver:  Solving for nuTilda, Initial residual = 0.00700416, Final residual = 0.00047064, No Iterations 4
ExecutionTime = 0.49 s  ClockTime = 0 s

Time = 29

smoothSolver:  Solving for Ux, Initial residual = 0.00935205, Final residual = 0.000648226, No Iterations 4
smoothSolver:  Solving for Uy, Initial residual = 0.00913531, Final residual = 0.000637076, No Iterations 4
GAMG:  Solving for p, Initial residual = 0.0934206, Final residual = 0.00727883, No Iterations 3
time step continuity errors : sum local = 0.00410633, global = 0.000117518, cumulative = 0.0296824
smoothSolver:  Solving for nuTilda, Initial residual = 0.00683122, Final residual = 0.000459097, No Iterations 4
ExecutionTime = 0.51 s  ClockTime = 1 s

Time = 30

smoothSolver:  Solving for Ux, Initial residual = 0.00836815, Final residual = 0.000573576, No Iterations 4
smoothSolver:  Solving for Uy, Initial residual = 0.0113574, Final residual = 0.000808437, No Iterations 4
GAMG:  Solving for p, Initial residual = 0.0853278, Final residual = 0.00558863, No Iterations 3
time step continuity errors : sum local = 0.00313591, global = -0.0003429, cumulative = 0.0293395
smoothSolver:  Solving for nuTilda, Initial residual = 0.00669377, Final residual = 0.000449906, No Iterations 4
ExecutionTime = 0.53 s  ClockTime = 1 s

Time = 31

smoothSolver:  Solving for Ux, Initial residual = 0.00862714, Final residual = 0.000589008, No Iterations 4
smoothSolver:  Solving for Uy, Initial residual = 0.0116715, Final residual = 0.000837147, No Iterations 4
GAMG:  Solving for p, Initial residual = 0.0817979, Final residual = 0.00646995, No Iterations 3
time step continuity errors : sum local = 0.00337563, global = -0.000895659, cumulative = 0.0284438
smoothSolver:  Solving for nuTilda, Initial residual = 0.00657082, Final residual = 0.000440422, No Iterations 4
ExecutionTime = 0.54 s  ClockTime = 1 s

Time = 32

smoothSolver:  Solving for Ux, Initial residual = 0.00877213, Final residual = 0.000600263, No Iterations 4
smoothSolver:  Solving for Uy, Initial residual = 0.00998376, Final residual = 0.000713798, No Iterations 4
GAMG:  Solving for p, Initial residual = 0.0819005, Final residual = 0.00680999, No Iterations 3
time step continuity errors : sum local = 0.00326436, global = -0.000674699, cumulative = 0.0277691
smoothSolver:  Solving for nuTilda, Initial residual = 0.00645113, Final residual = 0.000431227, No Iterations 4
ExecutionTime = 0.56 s  ClockTime = 1 s

Time = 33

smoothSolver:  Solving for Ux, Initial residual = 0.00869508, Final residual = 0.000595856, No Iterations 4
smoothSolver:  Solving for Uy, Initial residual = 0.00733696, Final residual = 0.000510835, No Iterations 4
GAMG:  Solving for p, Initial residual = 0.0769886, Final residual = 0.00534023, No Iterations 3
time step continuity errors : sum local = 0.0024935, global = -0.000294682, cumulative = 0.0274745
smoothSolver:  Solving for nuTilda, Initial residual = 0.00632625, Final residual = 0.000421828, No Iterations 4
ExecutionTime = 0.57 s  ClockTime = 1 s

Time = 34

smoothSolver:  Solving for Ux, Initial residual = 0.00861794, Final residual = 0.000593151, No Iterations 4
smoothSolver:  Solving for Uy, Initial residual = 0.00610483, Final residual = 0.000420433, No Iterations 4
GAMG:  Solving for p, Initial residual = 0.0658999, Final residual = 0.00336602, No Iterations 3
time step continuity errors : sum local = 0.00164628, global = -8.85695e-06, cumulative = 0.0274656
smoothSolver:  Solving for nuTilda, Initial residual = 0.00620872, Final residual = 0.000412794, No Iterations 4
ExecutionTime = 0.59 s  ClockTime = 1 s

Time = 35

smoothSolver:  Solving for Ux, Initial residual = 0.00790836, Final residual = 0.000539296, No Iterations 4
smoothSolver:  Solving for Uy, Initial residual = 0.00664893, Final residual = 0.000465042, No Iterations 4
GAMG:  Solving for p, Initial residual = 0.0565382, Final residual = 0.00377253, No Iterations 3
time step continuity errors : sum local = 0.00198399, global = 0.000430419, cumulative = 0.027896
smoothSolver:  Solving for nuTilda, Initial residual = 0.00610775, Final residual = 0.000406012, No Iterations 4
ExecutionTime = 0.61 s  ClockTime = 1 s

Time = 36

smoothSolver:  Solving for Ux, Initial residual = 0.00719913, Final residual = 0.000484836, No Iterations 4
smoothSolver:  Solving for Uy, Initial residual = 0.00744015, Final residual = 0.00052131, No Iterations 4
GAMG:  Solving for p, Initial residual = 0.0505594, Final residual = 0.00317034, No Iterations 3
time step continuity errors : sum local = 0.00173592, global = 0.00012963, cumulative = 0.0280257
smoothSolver:  Solving for nuTilda, Initial residual = 0.00602719, Final residual = 0.000400069, No Iterations 4
ExecutionTime = 0.62 s  ClockTime = 1 s

Time = 37

smoothSolver:  Solving for Ux, Initial residual = 0.0070875, Final residual = 0.000476868, No Iterations 4
smoothSolver:  Solving for Uy, Initial residual = 0.00787264, Final residual = 0.000553767, No Iterations 4
GAMG:  Solving for p, Initial residual = 0.047776, Final residual = 0.00229303, No Iterations 3
time step continuity errors : sum local = 0.00125264, global = -0.000148981, cumulative = 0.0278767
smoothSolver:  Solving for nuTilda, Initial residual = 0.00594631, Final residual = 0.00039497, No Iterations 4
ExecutionTime = 0.64 s  ClockTime = 1 s

Time = 38

smoothSolver:  Solving for Ux, Initial residual = 0.00711689, Final residual = 0.000478116, No Iterations 4
smoothSolver:  Solving for Uy, Initial residual = 0.00752232, Final residual = 0.000530877, No Iterations 4
GAMG:  Solving for p, Initial residual = 0.0463275, Final residual = 0.00298011, No Iterations 3
time step continuity errors : sum local = 0.00158279, global = -0.000406169, cumulative = 0.0274705
smoothSolver:  Solving for nuTilda, Initial residual = 0.00586592, Final residual = 0.000390352, No Iterations 4
ExecutionTime = 0.65 s  ClockTime = 1 s

Time = 39

smoothSolver:  Solving for Ux, Initial residual = 0.00687294, Final residual = 0.000459805, No Iterations 4
smoothSolver:  Solving for Uy, Initial residual = 0.00637185, Final residual = 0.000443633, No Iterations 4
GAMG:  Solving for p, Initial residual = 0.0445591, Final residual = 0.00282738, No Iterations 3
time step continuity errors : sum local = 0.00145834, global = -0.000297235, cumulative = 0.0271733
smoothSolver:  Solving for nuTilda, Initial residual = 0.005789, Final residual = 0.000385645, No Iterations 4
ExecutionTime = 0.67 s  ClockTime = 1 s

Time = 40

smoothSolver:  Solving for Ux, Initial residual = 0.00682399, Final residual = 0.00045793, No Iterations 4
smoothSolver:  Solving for Uy, Initial residual = 0.00546829, Final residual = 0.000374831, No Iterations 4
GAMG:  Solving for p, Initial residual = 0.0426734, Final residual = 0.00394461, No Iterations 2
time step continuity errors : sum local = 0.00202712, global = 0.00037262, cumulative = 0.0275459
smoothSolver:  Solving for nuTilda, Initial residual = 0.00570454, Final residual = 0.000380823, No Iterations 4
ExecutionTime = 0.68 s  ClockTime = 1 s

Time = 41

smoothSolver:  Solving for Ux, Initial residual = 0.00664031, Final residual = 0.000444326, No Iterations 4
smoothSolver:  Solving for Uy, Initial residual = 0.00551428, Final residual = 0.000380471, No Iterations 4
GAMG:  Solving for p, Initial residual = 0.0397467, Final residual = 0.00346913, No Iterations 2
time step continuity errors : sum local = 0.00181024, global = 0.000290367, cumulative = 0.0278363
smoothSolver:  Solving for nuTilda, Initial residual = 0.00563132, Final residual = 0.000375677, No Iterations 4
ExecutionTime = 0.7 s  ClockTime = 1 s

Time = 42

smoothSolver:  Solving for Ux, Initial residual = 0.00630501, Final residual = 0.00041938, No Iterations 4
smoothSolver:  Solving for Uy, Initial residual = 0.00573603, Final residual = 0.000398279, No Iterations 4
GAMG:  Solving for p, Initial residual = 0.0363745, Final residual = 0.00174358, No Iterations 3
time step continuity errors : sum local = 0.000938392, global = 0.000222713, cumulative = 0.028059
smoothSolver:  Solving for nuTilda, Initial residual = 0.00555797, Final residual = 0.000370283, No Iterations 4
ExecutionTime = 0.71 s  ClockTime = 1 s

Time = 43

smoothSolver:  Solving for Ux, Initial residual = 0.00605367, Final residual = 0.000401312, No Iterations 4
smoothSolver:  Solving for Uy, Initial residual = 0.00583932, Final residual = 0.000403892, No Iterations 4
GAMG:  Solving for p, Initial residual = 0.0341021, Final residual = 0.00306811, No Iterations 2
time step continuity errors : sum local = 0.00172404, global = 3.84571e-05, cumulative = 0.0280974
smoothSolver:  Solving for nuTilda, Initial residual = 0.00548987, Final residual = 0.000365119, No Iterations 4
ExecutionTime = 0.73 s  ClockTime = 1 s

Time = 44

smoothSolver:  Solving for Ux, Initial residual = 0.00595289, Final residual = 0.000395001, No Iterations 4
smoothSolver:  Solving for Uy, Initial residual = 0.0056844, Final residual = 0.000393826, No Iterations 4
GAMG:  Solving for p, Initial residual = 0.0335451, Final residual = 0.00294009, No Iterations 2
time step continuity errors : sum local = 0.00166746, global = 2.32353e-05, cumulative = 0.0281207
smoothSolver:  Solving for nuTilda, Initial residual = 0.00542281, Final residual = 0.000359982, No Iterations 4
ExecutionTime = 0.74 s  ClockTime = 1 s

Time = 45

smoothSolver:  Solving for Ux, Initial residual = 0.00582913, Final residual = 0.000386027, No Iterations 4
smoothSolver:  Solving for Uy, Initial residual = 0.0054337, Final residual = 0.000377505, No Iterations 4
GAMG:  Solving for p, Initial residual = 0.0324779, Final residual = 0.00166669, No Iterations 3
time step continuity errors : sum local = 0.000939072, global = -0.000279671, cumulative = 0.027841
smoothSolver:  Solving for nuTilda, Initial residual = 0.00535981, Final residual = 0.000354849, No Iterations 4
ExecutionTime = 0.75 s  ClockTime = 1 s

Time = 46

smoothSolver:  Solving for Ux, Initial residual = 0.00569362, Final residual = 0.000375576, No Iterations 4
smoothSolver:  Solving for Uy, Initial residual = 0.00502034, Final residual = 0.000345412, No Iterations 4
GAMG:  Solving for p, Initial residual = 0.0320966, Final residual = 0.00288152, No Iterations 2
time step continuity errors : sum local = 0.00159056, global = 0.00026321, cumulative = 0.0281042
smoothSolver:  Solving for nuTilda, Initial residual = 0.00529886, Final residual = 0.000350142, No Iterations 4
ExecutionTime = 0.76 s  ClockTime = 1 s

Time = 47

smoothSolver:  Solving for Ux, Initial residual = 0.00556952, Final residual = 0.000367157, No Iterations 4
smoothSolver:  Solving for Uy, Initial residual = 0.00479293, Final residual = 0.000328108, No Iterations 4
GAMG:  Solving for p, Initial residual = 0.0323285, Final residual = 0.00261883, No Iterations 2
time step continuity errors : sum local = 0.00143135, global = 0.000215538, cumulative = 0.0283197
smoothSolver:  Solving for nuTilda, Initial residual = 0.00524385, Final residual = 0.000346089, No Iterations 4
ExecutionTime = 0.78 s  ClockTime = 1 s

Time = 48

smoothSolver:  Solving for Ux, Initial residual = 0.00542392, Final residual = 0.000357543, No Iterations 4
smoothSolver:  Solving for Uy, Initial residual = 0.00480954, Final residual = 0.000329302, No Iterations 4
GAMG:  Solving for p, Initial residual = 0.0310121, Final residual = 0.00232107, No Iterations 2
time step continuity errors : sum local = 0.00127832, global = 0.000205309, cumulative = 0.028525
smoothSolver:  Solving for nuTilda, Initial residual = 0.00519271, Final residual = 0.000342562, No Iterations 4
ExecutionTime = 0.79 s  ClockTime = 1 s

Time = 49

smoothSolver:  Solving for Ux, Initial residual = 0.00524398, Final residual = 0.000345054, No Iterations 4
smoothSolver:  Solving for Uy, Initial residual = 0.00487076, Final residual = 0.00033503, No Iterations 4
GAMG:  Solving for p, Initial residual = 0.0298579, Final residual = 0.00222643, No Iterations 2
time step continuity errors : sum local = 0.0012494, global = 0.000197834, cumulative = 0.0287229
smoothSolver:  Solving for nuTilda, Initial residual = 0.00514741, Final residual = 0.000339791, No Iterations 4
ExecutionTime = 0.81 s  ClockTime = 1 s

Time = 50

smoothSolver:  Solving for Ux, Initial residual = 0.00504649, Final residual = 0.000331385, No Iterations 4
smoothSolver:  Solving for Uy, Initial residual = 0.00481661, Final residual = 0.000331639, No Iterations 4
GAMG:  Solving for p, Initial residual = 0.0293978, Final residual = 0.00226895, No Iterations 2
time step continuity errors : sum local = 0.00130294, global = 0.000192178, cumulative = 0.0289151
smoothSolver:  Solving for nuTilda, Initial residual = 0.00510728, Final residual = 0.000337244, No Iterations 4
ExecutionTime = 0.85 s  ClockTime = 1 s

forceCoeffs forces write:
    Cm    = -0.0589796
    Cd    = -0.935098
    Cl    = -0.226774
    Cl(f) = -0.172367
    Cl(r) = -0.0544075

Time = 51

smoothSolver:  Solving for Ux, Initial residual = 0.00489759, Final residual = 0.000320891, No Iterations 4
smoothSolver:  Solving for Uy, Initial residual = 0.00464971, Final residual = 0.00031923, No Iterations 4
GAMG:  Solving for p, Initial residual = 0.0285973, Final residual = 0.00216078, No Iterations 2
time step continuity errors : sum local = 0.00126432, global = 0.0001648, cumulative = 0.0290799
smoothSolver:  Solving for nuTilda, Initial residual = 0.0050651, Final residual = 0.000334764, No Iterations 4
ExecutionTime = 0.87 s  ClockTime = 1 s

Time = 52

smoothSolver:  Solving for Ux, Initial residual = 0.00480672, Final residual = 0.000315031, No Iterations 4
smoothSolver:  Solving for Uy, Initial residual = 0.00453816, Final residual = 0.000310759, No Iterations 4
GAMG:  Solving for p, Initial residual = 0.0279939, Final residual = 0.00195986, No Iterations 2
time step continuity errors : sum local = 0.00115884, global = 9.58273e-05, cumulative = 0.0291757
smoothSolver:  Solving for nuTilda, Initial residual = 0.00502669, Final residual = 0.000332514, No Iterations 4
ExecutionTime = 0.89 s  ClockTime = 1 s

Time = 53

smoothSolver:  Solving for Ux, Initial residual = 0.00469462, Final residual = 0.00030716, No Iterations 4
smoothSolver:  Solving for Uy, Initial residual = 0.00454379, Final residual = 0.00031159, No Iterations 4
GAMG:  Solving for p, Initial residual = 0.0277571, Final residual = 0.00190006, No Iterations 2
time step continuity errors : sum local = 0.00112826, global = 5.07248e-05, cumulative = 0.0292264
smoothSolver:  Solving for nuTilda, Initial residual = 0.00498883, Final residual = 0.000330239, No Iterations 4
ExecutionTime = 0.9 s  ClockTime = 1 s

Time = 54

smoothSolver:  Solving for Ux, Initial residual = 0.00456705, Final residual = 0.000298114, No Iterations 4
smoothSolver:  Solving for Uy, Initial residual = 0.00454326, Final residual = 0.000311155, No Iterations 4
GAMG:  Solving for p, Initial residual = 0.0277254, Final residual = 0.00208435, No Iterations 2
time step continuity errors : sum local = 0.00123843, global = 5.9162e-05, cumulative = 0.0292856
smoothSolver:  Solving for nuTilda, Initial residual = 0.00495444, Final residual = 0.00032812, No Iterations 4
ExecutionTime = 0.92 s  ClockTime = 1 s

Time = 55

smoothSolver:  Solving for Ux, Initial residual = 0.00447263, Final residual = 0.000291568, No Iterations 4
smoothSolver:  Solving for Uy, Initial residual = 0.00452649, Final residual = 0.00030891, No Iterations 4
GAMG:  Solving for p, Initial residual = 0.0275847, Final residual = 0.00210242, No Iterations 2
time step continuity errors : sum local = 0.00124862, global = 8.12639e-05, cumulative = 0.0293668
smoothSolver:  Solving for nuTilda, Initial residual = 0.00492118, Final residual = 0.000325979, No Iterations 4
ExecutionTime = 0.93 s  ClockTime = 1 s

Time = 56

smoothSolver:  Solving for Ux, Initial residual = 0.00440627, Final residual = 0.000287634, No Iterations 4
smoothSolver:  Solving for Uy, Initial residual = 0.00456081, Final residual = 0.000310984, No Iterations 4
GAMG:  Solving for p, Initial residual = 0.0272897, Final residual = 0.00192263, No Iterations 2
time step continuity errors : sum local = 0.00114432, global = 0.000120863, cumulative = 0.0294877
smoothSolver:  Solving for nuTilda, Initial residual = 0.00488299, Final residual = 0.00032387, No Iterations 4
ExecutionTime = 0.95 s  ClockTime = 1 s

Time = 57

smoothSolver:  Solving for Ux, Initial residual = 0.00430925, Final residual = 0.00028145, No Iterations 4
smoothSolver:  Solving for Uy, Initial residual = 0.00463254, Final residual = 0.000316629, No Iterations 4
GAMG:  Solving for p, Initial residual = 0.0268117, Final residual = 0.00173377, No Iterations 2
time step continuity errors : sum local = 0.00103799, global = 0.000174253, cumulative = 0.029662
smoothSolver:  Solving for nuTilda, Initial residual = 0.00484902, Final residual = 0.000321769, No Iterations 4
ExecutionTime = 0.96 s  ClockTime = 1 s

Time = 58

smoothSolver:  Solving for Ux, Initial residual = 0.00418483, Final residual = 0.000272774, No Iterations 4
smoothSolver:  Solving for Uy, Initial residual = 0.00469267, Final residual = 0.000321411, No Iterations 4
GAMG:  Solving for p, Initial residual = 0.0265938, Final residual = 0.00183395, No Iterations 2
time step continuity errors : sum local = 0.00110825, global = 0.000208142, cumulative = 0.0298701
smoothSolver:  Solving for nuTilda, Initial residual = 0.0048136, Final residual = 0.000319876, No Iterations 4
ExecutionTime = 0.97 s  ClockTime = 1 s

Time = 59

smoothSolver:  Solving for Ux, Initial residual = 0.00405707, Final residual = 0.000263374, No Iterations 4
smoothSolver:  Solving for Uy, Initial residual = 0.00471654, Final residual = 0.000323543, No Iterations 4
GAMG:  Solving for p, Initial residual = 0.0264103, Final residual = 0.00195861, No Iterations 2
time step continuity errors : sum local = 0.00119787, global = 0.00021141, cumulative = 0.0300815
smoothSolver:  Solving for nuTilda, Initial residual = 0.00477774, Final residual = 0.00031783, No Iterations 4
ExecutionTime = 0.99 s  ClockTime = 1 s

Time = 60

smoothSolver:  Solving for Ux, Initial residual = 0.00394745, Final residual = 0.000255433, No Iterations 4
smoothSolver:  Solving for Uy, Initial residual = 0.00473678, Final residual = 0.000324781, No Iterations 4
GAMG:  Solving for p, Initial residual = 0.0261764, Final residual = 0.00195202, No Iterations 2
time step continuity errors : sum local = 0.00120875, global = 0.00019247, cumulative = 0.030274
smoothSolver:  Solving for nuTilda, Initial residual = 0.00474388, Final residual = 0.000315717, No Iterations 4
ExecutionTime = 1 s  ClockTime = 1 s

Time = 61

smoothSolver:  Solving for Ux, Initial residual = 0.00385191, Final residual = 0.000248796, No Iterations 4
smoothSolver:  Solving for Uy, Initial residual = 0.00479078, Final residual = 0.00032933, No Iterations 4
GAMG:  Solving for p, Initial residual = 0.025892, Final residual = 0.00190409, No Iterations 2
time step continuity errors : sum local = 0.00119121, global = 0.000157522, cumulative = 0.0304315
smoothSolver:  Solving for nuTilda, Initial residual = 0.00470888, Final residual = 0.00031384, No Iterations 4
ExecutionTime = 1.02 s  ClockTime = 1 s

Time = 62

smoothSolver:  Solving for Ux, Initial residual = 0.00375462, Final residual = 0.00024214, No Iterations 4
smoothSolver:  Solving for Uy, Initial residual = 0.00486821, Final residual = 0.000336042, No Iterations 4
GAMG:  Solving for p, Initial residual = 0.0258525, Final residual = 0.00195636, No Iterations 2
time step continuity errors : sum local = 0.00123311, global = 0.000119571, cumulative = 0.0305511
smoothSolver:  Solving for nuTilda, Initial residual = 0.00467524, Final residual = 0.000311967, No Iterations 4
ExecutionTime = 1.03 s  ClockTime = 1 s

Time = 63

smoothSolver:  Solving for Ux, Initial residual = 0.00366321, Final residual = 0.00023537, No Iterations 4
smoothSolver:  Solving for Uy, Initial residual = 0.00494561, Final residual = 0.00034282, No Iterations 4
GAMG:  Solving for p, Initial residual = 0.0258343, Final residual = 0.00209083, No Iterations 2
time step continuity errors : sum local = 0.00132413, global = 9.54587e-05, cumulative = 0.0306465
smoothSolver:  Solving for nuTilda, Initial residual = 0.00463883, Final residual = 0.000309717, No Iterations 4
ExecutionTime = 1.05 s  ClockTime = 1 s

Time = 64

smoothSolver:  Solving for Ux, Initial residual = 0.0035862, Final residual = 0.000229575, No Iterations 4
smoothSolver:  Solving for Uy, Initial residual = 0.00503332, Final residual = 0.000350019, No Iterations 4
GAMG:  Solving for p, Initial residual = 0.0258138, Final residual = 0.00214666, No Iterations 2
time step continuity errors : sum local = 0.00136345, global = 9.1939e-05, cumulative = 0.0307385
smoothSolver:  Solving for nuTilda, Initial residual = 0.00460635, Final residual = 0.000307494, No Iterations 4
ExecutionTime = 1.06 s  ClockTime = 1 s

Time = 65

smoothSolver:  Solving for Ux, Initial residual = 0.00351775, Final residual = 0.000224928, No Iterations 4
smoothSolver:  Solving for Uy, Initial residual = 0.00514036, Final residual = 0.000358849, No Iterations 4
GAMG:  Solving for p, Initial residual = 0.0258035, Final residual = 0.0021222, No Iterations 2
time step continuity errors : sum local = 0.00135148, global = 0.000108189, cumulative = 0.0308467
smoothSolver:  Solving for nuTilda, Initial residual = 0.00457203, Final residual = 0.000305351, No Iterations 4
ExecutionTime = 1.08 s  ClockTime = 1 s

Time = 66

smoothSolver:  Solving for Ux, Initial residual = 0.00344746, Final residual = 0.000220689, No Iterations 4
smoothSolver:  Solving for Uy, Initial residual = 0.00526043, Final residual = 0.000369034, No Iterations 4
GAMG:  Solving for p, Initial residual = 0.0257926, Final residual = 0.00205039, No Iterations 2
time step continuity errors : sum local = 0.00131022, global = 0.000139197, cumulative = 0.0309859
smoothSolver:  Solving for nuTilda, Initial residual = 0.00454181, Final residual = 0.000303637, No Iterations 4
ExecutionTime = 1.09 s  ClockTime = 1 s

Time = 67

smoothSolver:  Solving for Ux, Initial residual = 0.00337229, Final residual = 0.00021633, No Iterations 4
smoothSolver:  Solving for Uy, Initial residual = 0.00537389, Final residual = 0.000378312, No Iterations 4
GAMG:  Solving for p, Initial residual = 0.025803, Final residual = 0.00202353, No Iterations 2
time step continuity errors : sum local = 0.00129938, global = 0.000174543, cumulative = 0.0311604
smoothSolver:  Solving for nuTilda, Initial residual = 0.00451034, Final residual = 0.000301864, No Iterations 4
ExecutionTime = 1.11 s  ClockTime = 1 s

Time = 68

smoothSolver:  Solving for Ux, Initial residual = 0.00330066, Final residual = 0.000212228, No Iterations 4
smoothSolver:  Solving for Uy, Initial residual = 0.00546022, Final residual = 0.000385495, No Iterations 4
GAMG:  Solving for p, Initial residual = 0.0258472, Final residual = 0.00208034, No Iterations 2
time step continuity errors : sum local = 0.00134475, global = 0.000202688, cumulative = 0.0313631
smoothSolver:  Solving for nuTilda, Initial residual = 0.0044781, Final residual = 0.000300095, No Iterations 4
ExecutionTime = 1.12 s  ClockTime = 1 s

Time = 69

smoothSolver:  Solving for Ux, Initial residual = 0.00323146, Final residual = 0.000208488, No Iterations 4
smoothSolver:  Solving for Uy, Initial residual = 0.0055306, Final residual = 0.000391326, No Iterations 4
GAMG:  Solving for p, Initial residual = 0.0257019, Final residual = 0.00210573, No Iterations 2
time step continuity errors : sum local = 0.00137214, global = 0.000215522, cumulative = 0.0315786
smoothSolver:  Solving for nuTilda, Initial residual = 0.00444724, Final residual = 0.000298434, No Iterations 4
ExecutionTime = 1.13 s  ClockTime = 1 s

Time = 70

smoothSolver:  Solving for Ux, Initial residual = 0.00316687, Final residual = 0.000205045, No Iterations 4
smoothSolver:  Solving for Uy, Initial residual = 0.0056022, Final residual = 0.0003965, No Iterations 4
GAMG:  Solving for p, Initial residual = 0.0255242, Final residual = 0.00208116, No Iterations 2
time step continuity errors : sum local = 0.00136779, global = 0.000211657, cumulative = 0.0317903
smoothSolver:  Solving for nuTilda, Initial residual = 0.00442036, Final residual = 0.000296724, No Iterations 4
ExecutionTime = 1.15 s  ClockTime = 1 s

Time = 71

smoothSolver:  Solving for Ux, Initial residual = 0.00310739, Final residual = 0.00020188, No Iterations 4
smoothSolver:  Solving for Uy, Initial residual = 0.00567773, Final residual = 0.000401829, No Iterations 4
GAMG:  Solving for p, Initial residual = 0.0252954, Final residual = 0.0020396, No Iterations 2
time step continuity errors : sum local = 0.00135125, global = 0.000194407, cumulative = 0.0319847
smoothSolver:  Solving for nuTilda, Initial residual = 0.00439212, Final residual = 0.000295058, No Iterations 4
ExecutionTime = 1.16 s  ClockTime = 1 s

Time = 72

smoothSolver:  Solving for Ux, Initial residual = 0.00305495, Final residual = 0.000199244, No Iterations 4
smoothSolver:  Solving for Uy, Initial residual = 0.00576072, Final residual = 0.000407713, No Iterations 4
GAMG:  Solving for p, Initial residual = 0.0250832, Final residual = 0.00204766, No Iterations 2
time step continuity errors : sum local = 0.00136585, global = 0.000171247, cumulative = 0.0321559
smoothSolver:  Solving for nuTilda, Initial residual = 0.00436356, Final residual = 0.000293196, No Iterations 4
ExecutionTime = 1.18 s  ClockTime = 1 s

Time = 73

smoothSolver:  Solving for Ux, Initial residual = 0.00301312, Final residual = 0.000197054, No Iterations 4
smoothSolver:  Solving for Uy, Initial residual = 0.00585097, Final residual = 0.000413861, No Iterations 4
GAMG:  Solving for p, Initial residual = 0.0249278, Final residual = 0.00209117, No Iterations 2
time step continuity errors : sum local = 0.00140234, global = 0.000150585, cumulative = 0.0323065
smoothSolver:  Solving for nuTilda, Initial residual = 0.00433799, Final residual = 0.000291155, No Iterations 4
ExecutionTime = 1.2 s  ClockTime = 1 s

Time = 74

smoothSolver:  Solving for Ux, Initial residual = 0.00298092, Final residual = 0.00019541, No Iterations 4
smoothSolver:  Solving for Uy, Initial residual = 0.00595502, Final residual = 0.000420735, No Iterations 4
GAMG:  Solving for p, Initial residual = 0.0249044, Final residual = 0.00212079, No Iterations 2
time step continuity errors : sum local = 0.00142808, global = 0.000139461, cumulative = 0.032446
smoothSolver:  Solving for nuTilda, Initial residual = 0.00431665, Final residual = 0.000289121, No Iterations 4
ExecutionTime = 1.21 s  ClockTime = 1 s

Time = 75

smoothSolver:  Solving for Ux, Initial residual = 0.00295468, Final residual = 0.000194082, No Iterations 4
smoothSolver:  Solving for Uy, Initial residual = 0.00606573, Final residual = 0.000428328, No Iterations 4
GAMG:  Solving for p, Initial residual = 0.0248573, Final residual = 0.0021146, No Iterations 2
time step continuity errors : sum local = 0.00142897, global = 0.000140759, cumulative = 0.0325867
smoothSolver:  Solving for nuTilda, Initial residual = 0.0042949, Final residual = 0.000286957, No Iterations 4
ExecutionTime = 1.22 s  ClockTime = 1 s

Time = 76

smoothSolver:  Solving for Ux, Initial residual = 0.00293417, Final residual = 0.000192962, No Iterations 4
smoothSolver:  Solving for Uy, Initial residual = 0.00618449, Final residual = 0.000436587, No Iterations 4
GAMG:  Solving for p, Initial residual = 0.0247745, Final residual = 0.00208271, No Iterations 2
time step continuity errors : sum local = 0.00141235, global = 0.000153342, cumulative = 0.0327401
smoothSolver:  Solving for nuTilda, Initial residual = 0.00427621, Final residual = 0.000284996, No Iterations 4
ExecutionTime = 1.23 s  ClockTime = 1 s

Time = 77

smoothSolver:  Solving for Ux, Initial residual = 0.00291686, Final residual = 0.000191859, No Iterations 4
smoothSolver:  Solving for Uy, Initial residual = 0.00629652, Final residual = 0.000444434, No Iterations 4
GAMG:  Solving for p, Initial residual = 0.0246482, Final residual = 0.00204905, No Iterations 2
time step continuity errors : sum local = 0.00139508, global = 0.000170896, cumulative = 0.032911
smoothSolver:  Solving for nuTilda, Initial residual = 0.00425372, Final residual = 0.000283155, No Iterations 4
ExecutionTime = 1.25 s  ClockTime = 1 s

Time = 78

smoothSolver:  Solving for Ux, Initial residual = 0.00290112, Final residual = 0.000190954, No Iterations 4
smoothSolver:  Solving for Uy, Initial residual = 0.00640057, Final residual = 0.000452205, No Iterations 4
GAMG:  Solving for p, Initial residual = 0.024617, Final residual = 0.00201602, No Iterations 2
time step continuity errors : sum local = 0.00137936, global = 0.000187133, cumulative = 0.0330981
smoothSolver:  Solving for nuTilda, Initial residual = 0.00423238, Final residual = 0.000281503, No Iterations 4
ExecutionTime = 1.26 s  ClockTime = 1 s

Time = 79

smoothSolver:  Solving for Ux, Initial residual = 0.00289154, Final residual = 0.000190345, No Iterations 4
smoothSolver:  Solving for Uy, Initial residual = 0.00649314, Final residual = 0.000459614, No Iterations 4
GAMG:  Solving for p, Initial residual = 0.0244921, Final residual = 0.00198275, No Iterations 2
time step continuity errors : sum local = 0.0013643, global = 0.000195848, cumulative = 0.0332939
smoothSolver:  Solving for nuTilda, Initial residual = 0.00421407, Final residual = 0.000280242, No Iterations 4
ExecutionTime = 1.28 s  ClockTime = 1 s

Time = 80

smoothSolver:  Solving for Ux, Initial residual = 0.00288633, Final residual = 0.000190348, No Iterations 4
smoothSolver:  Solving for Uy, Initial residual = 0.00658032, Final residual = 0.000466871, No Iterations 4
GAMG:  Solving for p, Initial residual = 0.0243362, Final residual = 0.001955, No Iterations 2
time step continuity errors : sum local = 0.00135333, global = 0.000194669, cumulative = 0.0334886
smoothSolver:  Solving for nuTilda, Initial residual = 0.00419754, Final residual = 0.000278956, No Iterations 4
ExecutionTime = 1.29 s  ClockTime = 1 s

Time = 81

smoothSolver:  Solving for Ux, Initial residual = 0.00288662, Final residual = 0.00019091, No Iterations 4
smoothSolver:  Solving for Uy, Initial residual = 0.00666963, Final residual = 0.00047494, No Iterations 4
GAMG:  Solving for p, Initial residual = 0.024266, Final residual = 0.00194547, No Iterations 2
time step continuity errors : sum local = 0.00135472, global = 0.000184855, cumulative = 0.0336735
smoothSolver:  Solving for nuTilda, Initial residual = 0.00418191, Final residual = 0.000277601, No Iterations 4
ExecutionTime = 1.31 s  ClockTime = 1 s

Time = 82

smoothSolver:  Solving for Ux, Initial residual = 0.00289339, Final residual = 0.000192028, No Iterations 4
smoothSolver:  Solving for Uy, Initial residual = 0.0067657, Final residual = 0.000483488, No Iterations 4
GAMG:  Solving for p, Initial residual = 0.0242006, Final residual = 0.00196704, No Iterations 2
time step continuity errors : sum local = 0.00137713, global = 0.00017027, cumulative = 0.0338437
smoothSolver:  Solving for nuTilda, Initial residual = 0.00416679, Final residual = 0.000275974, No Iterations 4
ExecutionTime = 1.32 s  ClockTime = 1 s

Time = 83

smoothSolver:  Solving for Ux, Initial residual = 0.00290834, Final residual = 0.000193636, No Iterations 4
smoothSolver:  Solving for Uy, Initial residual = 0.00686971, Final residual = 0.000493235, No Iterations 4
GAMG:  Solving for p, Initial residual = 0.0241633, Final residual = 0.0020087, No Iterations 2
time step continuity errors : sum local = 0.00141256, global = 0.000156065, cumulative = 0.0339998
smoothSolver:  Solving for nuTilda, Initial residual = 0.00415043, Final residual = 0.00027389, No Iterations 4
ExecutionTime = 1.34 s  ClockTime = 1 s

Time = 84

smoothSolver:  Solving for Ux, Initial residual = 0.00292447, Final residual = 0.000195363, No Iterations 4
smoothSolver:  Solving for Uy, Initial residual = 0.00697804, Final residual = 0.000503232, No Iterations 4
GAMG:  Solving for p, Initial residual = 0.024098, Final residual = 0.0020444, No Iterations 2
time step continuity errors : sum local = 0.00144307, global = 0.000146816, cumulative = 0.0341466
smoothSolver:  Solving for nuTilda, Initial residual = 0.00413288, Final residual = 0.000271684, No Iterations 4
ExecutionTime = 1.35 s  ClockTime = 1 s

Time = 85

smoothSolver:  Solving for Ux, Initial residual = 0.00294103, Final residual = 0.000196967, No Iterations 4
smoothSolver:  Solving for Uy, Initial residual = 0.00709259, Final residual = 0.000512678, No Iterations 4
GAMG:  Solving for p, Initial residual = 0.0239938, Final residual = 0.00206568, No Iterations 2
time step continuity errors : sum local = 0.00146317, global = 0.000145331, cumulative = 0.0342919
smoothSolver:  Solving for nuTilda, Initial residual = 0.00411724, Final residual = 0.000269561, No Iterations 4
ExecutionTime = 1.36 s  ClockTime = 1 s

Time = 86

smoothSolver:  Solving for Ux, Initial residual = 0.00296141, Final residual = 0.000198568, No Iterations 4
smoothSolver:  Solving for Uy, Initial residual = 0.00720249, Final residual = 0.000521913, No Iterations 4
GAMG:  Solving for p, Initial residual = 0.023904, Final residual = 0.00207266, No Iterations 2
time step continuity errors : sum local = 0.00147323, global = 0.000151059, cumulative = 0.034443
smoothSolver:  Solving for nuTilda, Initial residual = 0.00409537, Final residual = 0.000267012, No Iterations 4
ExecutionTime = 1.38 s  ClockTime = 1 s

Time = 87

smoothSolver:  Solving for Ux, Initial residual = 0.00298089, Final residual = 0.000200063, No Iterations 4
smoothSolver:  Solving for Uy, Initial residual = 0.00730742, Final residual = 0.000530752, No Iterations 4
GAMG:  Solving for p, Initial residual = 0.0238271, Final residual = 0.00207392, No Iterations 2
time step continuity errors : sum local = 0.00147975, global = 0.00016111, cumulative = 0.0346041
smoothSolver:  Solving for nuTilda, Initial residual = 0.00407764, Final residual = 0.000264122, No Iterations 4
ExecutionTime = 1.39 s  ClockTime = 1 s

Time = 88

smoothSolver:  Solving for Ux, Initial residual = 0.00299966, Final residual = 0.000201371, No Iterations 4
smoothSolver:  Solving for Uy, Initial residual = 0.00740362, Final residual = 0.000538899, No Iterations 4
GAMG:  Solving for p, Initial residual = 0.0237591, Final residual = 0.00206755, No Iterations 2
time step continuity errors : sum local = 0.00148172, global = 0.000171214, cumulative = 0.0347753
smoothSolver:  Solving for nuTilda, Initial residual = 0.00405574, Final residual = 0.00026087, No Iterations 4
ExecutionTime = 1.41 s  ClockTime = 1 s

Time = 89

smoothSolver:  Solving for Ux, Initial residual = 0.00301567, Final residual = 0.000202414, No Iterations 4
smoothSolver:  Solving for Uy, Initial residual = 0.00748844, Final residual = 0.000546435, No Iterations 4
GAMG:  Solving for p, Initial residual = 0.0237532, Final residual = 0.00205624, No Iterations 2
time step continuity errors : sum local = 0.00148083, global = 0.000176769, cumulative = 0.0349521
smoothSolver:  Solving for nuTilda, Initial residual = 0.00403224, Final residual = 0.000256998, No Iterations 4
ExecutionTime = 1.42 s  ClockTime = 1 s

Time = 90

smoothSolver:  Solving for Ux, Initial residual = 0.00303379, Final residual = 0.00020347, No Iterations 4
smoothSolver:  Solving for Uy, Initial residual = 0.00757419, Final residual = 0.000553275, No Iterations 4
GAMG:  Solving for p, Initial residual = 0.0237215, Final residual = 0.00203302, No Iterations 2
time step continuity errors : sum local = 0.00147155, global = 0.000177825, cumulative = 0.0351299
smoothSolver:  Solving for nuTilda, Initial residual = 0.00400201, Final residual = 0.000252621, No Iterations 4
ExecutionTime = 1.43 s  ClockTime = 1 s

Time = 91

smoothSolver:  Solving for Ux, Initial residual = 0.00305228, Final residual = 0.000204651, No Iterations 4
smoothSolver:  Solving for Uy, Initial residual = 0.0076509, Final residual = 0.000559172, No Iterations 4
GAMG:  Solving for p, Initial residual = 0.0237381, Final residual = 0.00200601, No Iterations 2
time step continuity errors : sum local = 0.00145911, global = 0.000174468, cumulative = 0.0353044
smoothSolver:  Solving for nuTilda, Initial residual = 0.0039693, Final residual = 0.000247759, No Iterations 4
ExecutionTime = 1.44 s  ClockTime = 1 s

Time = 92

smoothSolver:  Solving for Ux, Initial residual = 0.00306705, Final residual = 0.000205564, No Iterations 4
smoothSolver:  Solving for Uy, Initial residual = 0.00773524, Final residual = 0.000564517, No Iterations 4
GAMG:  Solving for p, Initial residual = 0.023809, Final residual = 0.00198244, No Iterations 2
time step continuity errors : sum local = 0.00144836, global = 0.000169895, cumulative = 0.0354743
smoothSolver:  Solving for nuTilda, Initial residual = 0.0039355, Final residual = 0.000242275, No Iterations 4
ExecutionTime = 1.46 s  ClockTime = 1 s

Time = 93

smoothSolver:  Solving for Ux, Initial residual = 0.00308382, Final residual = 0.000206171, No Iterations 4
smoothSolver:  Solving for Uy, Initial residual = 0.00781817, Final residual = 0.000568722, No Iterations 4
GAMG:  Solving for p, Initial residual = 0.0239394, Final residual = 0.00195731, No Iterations 2
time step continuity errors : sum local = 0.00143599, global = 0.000166343, cumulative = 0.0356406
smoothSolver:  Solving for nuTilda, Initial residual = 0.0038967, Final residual = 0.00023646, No Iterations 4
ExecutionTime = 1.48 s  ClockTime = 1 s

Time = 94

smoothSolver:  Solving for Ux, Initial residual = 0.00309743, Final residual = 0.000206744, No Iterations 4
smoothSolver:  Solving for Uy, Initial residual = 0.00790065, Final residual = 0.000572709, No Iterations 4
GAMG:  Solving for p, Initial residual = 0.0241612, Final residual = 0.00192842, No Iterations 2
time step continuity errors : sum local = 0.00142021, global = 0.00016686, cumulative = 0.0358075
smoothSolver:  Solving for nuTilda, Initial residual = 0.00385322, Final residual = 0.000230329, No Iterations 4
ExecutionTime = 1.49 s  ClockTime = 1 s

Time = 95

smoothSolver:  Solving for Ux, Initial residual = 0.00311116, Final residual = 0.000207096, No Iterations 4
smoothSolver:  Solving for Uy, Initial residual = 0.00797964, Final residual = 0.000576674, No Iterations 4
GAMG:  Solving for p, Initial residual = 0.0243929, Final residual = 0.00189545, No Iterations 2
time step continuity errors : sum local = 0.00140084, global = 0.000171624, cumulative = 0.0359791
smoothSolver:  Solving for nuTilda, Initial residual = 0.00380295, Final residual = 0.000224202, No Iterations 4
ExecutionTime = 1.51 s  ClockTime = 1 s

Time = 96

smoothSolver:  Solving for Ux, Initial residual = 0.0031257, Final residual = 0.000207488, No Iterations 4
smoothSolver:  Solving for Uy, Initial residual = 0.00806, Final residual = 0.000580021, No Iterations 4
GAMG:  Solving for p, Initial residual = 0.0246253, Final residual = 0.00186479, No Iterations 2
time step continuity errors : sum local = 0.00138295, global = 0.0001799, cumulative = 0.036159
smoothSolver:  Solving for nuTilda, Initial residual = 0.00374975, Final residual = 0.000218287, No Iterations 4
ExecutionTime = 1.52 s  ClockTime = 2 s

Time = 97

smoothSolver:  Solving for Ux, Initial residual = 0.00313591, Final residual = 0.000207561, No Iterations 4
smoothSolver:  Solving for Uy, Initial residual = 0.00813517, Final residual = 0.000583072, No Iterations 4
GAMG:  Solving for p, Initial residual = 0.0248345, Final residual = 0.0018487, No Iterations 2
time step continuity errors : sum local = 0.00137573, global = 0.000189467, cumulative = 0.0363485
smoothSolver:  Solving for nuTilda, Initial residual = 0.00369419, Final residual = 0.000212441, No Iterations 4
ExecutionTime = 1.53 s  ClockTime = 2 s

Time = 98

smoothSolver:  Solving for Ux, Initial residual = 0.00314308, Final residual = 0.000207339, No Iterations 4
smoothSolver:  Solving for Uy, Initial residual = 0.00821075, Final residual = 0.000586874, No Iterations 4
GAMG:  Solving for p, Initial residual = 0.0249828, Final residual = 0.00185421, No Iterations 2
time step continuity errors : sum local = 0.00138446, global = 0.000198066, cumulative = 0.0365465
smoothSolver:  Solving for nuTilda, Initial residual = 0.00363038, Final residual = 0.000206965, No Iterations 4
ExecutionTime = 1.55 s  ClockTime = 2 s

Time = 99

smoothSolver:  Solving for Ux, Initial residual = 0.00314846, Final residual = 0.000207225, No Iterations 4
smoothSolver:  Solving for Uy, Initial residual = 0.0082901, Final residual = 0.000591023, No Iterations 4
GAMG:  Solving for p, Initial residual = 0.0251125, Final residual = 0.00188102, No Iterations 2
time step continuity errors : sum local = 0.00140916, global = 0.000204337, cumulative = 0.0367509
smoothSolver:  Solving for nuTilda, Initial residual = 0.00356794, Final residual = 0.00020212, No Iterations 4
ExecutionTime = 1.56 s  ClockTime = 2 s

Time = 100

smoothSolver:  Solving for Ux, Initial residual = 0.00315534, Final residual = 0.000207034, No Iterations 4
smoothSolver:  Solving for Uy, Initial residual = 0.00836967, Final residual = 0.000596264, No Iterations 4
GAMG:  Solving for p, Initial residual = 0.0254014, Final residual = 0.00193139, No Iterations 2
time step continuity errors : sum local = 0.00145196, global = 0.000207348, cumulative = 0.0369582
smoothSolver:  Solving for nuTilda, Initial residual = 0.00350241, Final residual = 0.000197156, No Iterations 4
ExecutionTime = 1.61 s  ClockTime = 2 s

forceCoeffs forces write:
    Cm    = -0.0941769
    Cd    = -1.01378
    Cl    = -0.26839
    Cl(f) = -0.228372
    Cl(r) = -0.040018

Time = 101

smoothSolver:  Solving for Ux, Initial residual = 0.00316286, Final residual = 0.000206755, No Iterations 4
smoothSolver:  Solving for Uy, Initial residual = 0.00845819, Final residual = 0.000602333, No Iterations 4
GAMG:  Solving for p, Initial residual = 0.025654, Final residual = 0.00199341, No Iterations 2
time step continuity errors : sum local = 0.00150378, global = 0.000207026, cumulative = 0.0371653
smoothSolver:  Solving for nuTilda, Initial residual = 0.00343695, Final residual = 0.000192797, No Iterations 4
ExecutionTime = 1.62 s  ClockTime = 2 s

Time = 102

smoothSolver:  Solving for Ux, Initial residual = 0.00317681, Final residual = 0.000206646, No Iterations 4
smoothSolver:  Solving for Uy, Initial residual = 0.00855257, Final residual = 0.000608552, No Iterations 4
GAMG:  Solving for p, Initial residual = 0.0259612, Final residual = 0.00205951, No Iterations 2
time step continuity errors : sum local = 0.00155872, global = 0.0002036, cumulative = 0.0373689
smoothSolver:  Solving for nuTilda, Initial residual = 0.00337284, Final residual = 0.000189184, No Iterations 4
ExecutionTime = 1.63 s  ClockTime = 2 s

Time = 103

smoothSolver:  Solving for Ux, Initial residual = 0.00319674, Final residual = 0.000207047, No Iterations 4
smoothSolver:  Solving for Uy, Initial residual = 0.00866394, Final residual = 0.000616195, No Iterations 4
GAMG:  Solving for p, Initial residual = 0.0263786, Final residual = 0.00212847, No Iterations 2
time step continuity errors : sum local = 0.00161617, global = 0.000197777, cumulative = 0.0375666
smoothSolver:  Solving for nuTilda, Initial residual = 0.00331104, Final residual = 0.000186006, No Iterations 4
ExecutionTime = 1.65 s  ClockTime = 2 s

Time = 104

smoothSolver:  Solving for Ux, Initial residual = 0.00323696, Final residual = 0.000209223, No Iterations 4
smoothSolver:  Solving for Uy, Initial residual = 0.00878391, Final residual = 0.00062551, No Iterations 4
GAMG:  Solving for p, Initial residual = 0.0268361, Final residual = 0.00219791, No Iterations 2
time step continuity errors : sum local = 0.00167398, global = 0.000190256, cumulative = 0.0377569
smoothSolver:  Solving for nuTilda, Initial residual = 0.00325388, Final residual = 0.000183874, No Iterations 4
ExecutionTime = 1.66 s  ClockTime = 2 s

Time = 105

smoothSolver:  Solving for Ux, Initial residual = 0.00330274, Final residual = 0.000213667, No Iterations 4
smoothSolver:  Solving for Uy, Initial residual = 0.00891999, Final residual = 0.000636828, No Iterations 4
GAMG:  Solving for p, Initial residual = 0.027359, Final residual = 0.00226835, No Iterations 2
time step continuity errors : sum local = 0.00173255, global = 0.000181992, cumulative = 0.0379389
smoothSolver:  Solving for nuTilda, Initial residual = 0.00320086, Final residual = 0.000182185, No Iterations 4
ExecutionTime = 1.68 s  ClockTime = 2 s

Time = 106

smoothSolver:  Solving for Ux, Initial residual = 0.00338905, Final residual = 0.000219907, No Iterations 4
smoothSolver:  Solving for Uy, Initial residual = 0.00907213, Final residual = 0.000649734, No Iterations 4
GAMG:  Solving for p, Initial residual = 0.0279577, Final residual = 0.00232921, No Iterations 2
time step continuity errors : sum local = 0.00178431, global = 0.000173185, cumulative = 0.0381121
smoothSolver:  Solving for nuTilda, Initial residual = 0.00315525, Final residual = 0.000180887, No Iterations 4
ExecutionTime = 1.69 s  ClockTime = 2 s

Time = 107

smoothSolver:  Solving for Ux, Initial residual = 0.00349335, Final residual = 0.000227443, No Iterations 4
smoothSolver:  Solving for Uy, Initial residual = 0.00925665, Final residual = 0.00066469, No Iterations 4
GAMG:  Solving for p, Initial residual = 0.0286139, Final residual = 0.00237379, No Iterations 2
time step continuity errors : sum local = 0.00182338, global = 0.000163632, cumulative = 0.0382757
smoothSolver:  Solving for nuTilda, Initial residual = 0.00311853, Final residual = 0.000179877, No Iterations 4
ExecutionTime = 1.71 s  ClockTime = 2 s

Time = 108

smoothSolver:  Solving for Ux, Initial residual = 0.00361173, Final residual = 0.000236427, No Iterations 4
smoothSolver:  Solving for Uy, Initial residual = 0.00945828, Final residual = 0.000680236, No Iterations 4
GAMG:  Solving for p, Initial residual = 0.0291672, Final residual = 0.00240318, No Iterations 2
time step continuity errors : sum local = 0.00185103, global = 0.000152833, cumulative = 0.0384285
smoothSolver:  Solving for nuTilda, Initial residual = 0.00309808, Final residual = 0.000179068, No Iterations 4
ExecutionTime = 1.72 s  ClockTime = 2 s

Time = 109

smoothSolver:  Solving for Ux, Initial residual = 0.00375241, Final residual = 0.000247273, No Iterations 4
smoothSolver:  Solving for Uy, Initial residual = 0.0096722, Final residual = 0.00069588, No Iterations 4
GAMG:  Solving for p, Initial residual = 0.0296162, Final residual = 0.00242021, No Iterations 2
time step continuity errors : sum local = 0.00186917, global = 0.000140215, cumulative = 0.0385687
smoothSolver:  Solving for nuTilda, Initial residual = 0.00308541, Final residual = 0.000179458, No Iterations 4
ExecutionTime = 1.73 s  ClockTime = 2 s

Time = 110

smoothSolver:  Solving for Ux, Initial residual = 0.00391382, Final residual = 0.000259417, No Iterations 4
smoothSolver:  Solving for Uy, Initial residual = 0.00989678, Final residual = 0.000710636, No Iterations 4
GAMG:  Solving for p, Initial residual = 0.0299485, Final residual = 0.00242597, No Iterations 2
time step continuity errors : sum local = 0.00187857, global = 0.000125288, cumulative = 0.038694
smoothSolver:  Solving for nuTilda, Initial residual = 0.0030956, Final residual = 0.000180336, No Iterations 4
ExecutionTime = 1.75 s  ClockTime = 2 s

Time = 111

smoothSolver:  Solving for Ux, Initial residual = 0.00409222, Final residual = 0.000272673, No Iterations 4
smoothSolver:  Solving for Uy, Initial residual = 0.0101266, Final residual = 0.000725787, No Iterations 4
GAMG:  Solving for p, Initial residual = 0.0302886, Final residual = 0.00242469, No Iterations 2
time step continuity errors : sum local = 0.00188207, global = 0.000107915, cumulative = 0.038802
smoothSolver:  Solving for nuTilda, Initial residual = 0.00312111, Final residual = 0.000182204, No Iterations 4
ExecutionTime = 1.76 s  ClockTime = 2 s

Time = 112

smoothSolver:  Solving for Ux, Initial residual = 0.00428319, Final residual = 0.000286504, No Iterations 4
smoothSolver:  Solving for Uy, Initial residual = 0.0103628, Final residual = 0.000740023, No Iterations 4
GAMG:  Solving for p, Initial residual = 0.0306275, Final residual = 0.00242379, No Iterations 2
time step continuity errors : sum local = 0.00188516, global = 8.84046e-05, cumulative = 0.0388904
smoothSolver:  Solving for nuTilda, Initial residual = 0.00316144, Final residual = 0.00018508, No Iterations 4
ExecutionTime = 1.78 s  ClockTime = 2 s

Time = 113

smoothSolver:  Solving for Ux, Initial residual = 0.00448422, Final residual = 0.00030074, No Iterations 4
smoothSolver:  Solving for Uy, Initial residual = 0.010605, Final residual = 0.000753986, No Iterations 4
GAMG:  Solving for p, Initial residual = 0.0309934, Final residual = 0.00242866, No Iterations 2
time step continuity errors : sum local = 0.0018924, global = 6.73215e-05, cumulative = 0.0389577
smoothSolver:  Solving for nuTilda, Initial residual = 0.00322841, Final residual = 0.000188766, No Iterations 4
ExecutionTime = 1.79 s  ClockTime = 2 s

Time = 114

smoothSolver:  Solving for Ux, Initial residual = 0.00469144, Final residual = 0.000315108, No Iterations 4
smoothSolver:  Solving for Uy, Initial residual = 0.0108432, Final residual = 0.000766244, No Iterations 4
GAMG:  Solving for p, Initial residual = 0.0315338, Final residual = 0.00244249, No Iterations 2
time step continuity errors : sum local = 0.00190618, global = 4.51936e-05, cumulative = 0.0390029
smoothSolver:  Solving for nuTilda, Initial residual = 0.00330887, Final residual = 0.000192646, No Iterations 4
ExecutionTime = 1.81 s  ClockTime = 2 s

Time = 115

smoothSolver:  Solving for Ux, Initial residual = 0.00490879, Final residual = 0.000330205, No Iterations 4
smoothSolver:  Solving for Uy, Initial residual = 0.0110686, Final residual = 0.000777422, No Iterations 4
GAMG:  Solving for p, Initial residual = 0.0322731, Final residual = 0.00247436, No Iterations 2
time step continuity errors : sum local = 0.00193347, global = 2.21333e-05, cumulative = 0.039025
smoothSolver:  Solving for nuTilda, Initial residual = 0.00340518, Final residual = 0.000197083, No Iterations 4
ExecutionTime = 1.82 s  ClockTime = 2 s

Time = 116

smoothSolver:  Solving for Ux, Initial residual = 0.00513864, Final residual = 0.000346237, No Iterations 4
smoothSolver:  Solving for Uy, Initial residual = 0.0112804, Final residual = 0.000787749, No Iterations 4
GAMG:  Solving for p, Initial residual = 0.0331849, Final residual = 0.00252146, No Iterations 2
time step continuity errors : sum local = 0.00197225, global = -1.34667e-06, cumulative = 0.0390237
smoothSolver:  Solving for nuTilda, Initial residual = 0.00350286, Final residual = 0.000201727, No Iterations 4
ExecutionTime = 1.84 s  ClockTime = 2 s

Time = 117

smoothSolver:  Solving for Ux, Initial residual = 0.0053699, Final residual = 0.000362241, No Iterations 4
smoothSolver:  Solving for Uy, Initial residual = 0.0114785, Final residual = 0.000798105, No Iterations 4
GAMG:  Solving for p, Initial residual = 0.034293, Final residual = 0.0025865, No Iterations 2
time step continuity errors : sum local = 0.00202472, global = -2.45416e-05, cumulative = 0.0389991
smoothSolver:  Solving for nuTilda, Initial residual = 0.00359883, Final residual = 0.000206432, No Iterations 4
ExecutionTime = 1.85 s  ClockTime = 2 s

Time = 118

smoothSolver:  Solving for Ux, Initial residual = 0.00560507, Final residual = 0.000378393, No Iterations 4
smoothSolver:  Solving for Uy, Initial residual = 0.0116662, Final residual = 0.000808912, No Iterations 4
GAMG:  Solving for p, Initial residual = 0.0355211, Final residual = 0.00266283, No Iterations 2
time step continuity errors : sum local = 0.00208562, global = -4.68916e-05, cumulative = 0.0389522
smoothSolver:  Solving for nuTilda, Initial residual = 0.00369307, Final residual = 0.0002117, No Iterations 4
ExecutionTime = 1.86 s  ClockTime = 2 s

Time = 119

smoothSolver:  Solving for Ux, Initial residual = 0.00584142, Final residual = 0.000394998, No Iterations 4
smoothSolver:  Solving for Uy, Initial residual = 0.011851, Final residual = 0.000819576, No Iterations 4
GAMG:  Solving for p, Initial residual = 0.0367883, Final residual = 0.00274713, No Iterations 2
time step continuity errors : sum local = 0.00215275, global = -6.67335e-05, cumulative = 0.0388855
smoothSolver:  Solving for nuTilda, Initial residual = 0.00378496, Final residual = 0.000217621, No Iterations 4
ExecutionTime = 1.88 s  ClockTime = 2 s

Time = 120

smoothSolver:  Solving for Ux, Initial residual = 0.00607843, Final residual = 0.000411424, No Iterations 4
smoothSolver:  Solving for Uy, Initial residual = 0.0120273, Final residual = 0.000830414, No Iterations 4
GAMG:  Solving for p, Initial residual = 0.0380063, Final residual = 0.00283121, No Iterations 2
time step continuity errors : sum local = 0.00221871, global = -8.18844e-05, cumulative = 0.0388036
smoothSolver:  Solving for nuTilda, Initial residual = 0.00388133, Final residual = 0.000223982, No Iterations 4
ExecutionTime = 1.9 s  ClockTime = 2 s

Time = 121

smoothSolver:  Solving for Ux, Initial residual = 0.00631229, Final residual = 0.000427181, No Iterations 4
smoothSolver:  Solving for Uy, Initial residual = 0.0122077, Final residual = 0.000841524, No Iterations 4
GAMG:  Solving for p, Initial residual = 0.0393065, Final residual = 0.00290202, No Iterations 2
time step continuity errors : sum local = 0.00227415, global = -9.07312e-05, cumulative = 0.0387129
smoothSolver:  Solving for nuTilda, Initial residual = 0.00398102, Final residual = 0.000230597, No Iterations 4
ExecutionTime = 1.91 s  ClockTime = 2 s

Time = 122

smoothSolver:  Solving for Ux, Initial residual = 0.0065347, Final residual = 0.000441793, No Iterations 4
smoothSolver:  Solving for Uy, Initial residual = 0.0123863, Final residual = 0.000853746, No Iterations 4
GAMG:  Solving for p, Initial residual = 0.040608, Final residual = 0.0029458, No Iterations 2
time step continuity errors : sum local = 0.00230911, global = -9.36075e-05, cumulative = 0.0386193
smoothSolver:  Solving for nuTilda, Initial residual = 0.00407527, Final residual = 0.000237555, No Iterations 4
ExecutionTime = 1.93 s  ClockTime = 2 s

Time = 123

smoothSolver:  Solving for Ux, Initial residual = 0.00674964, Final residual = 0.000455954, No Iterations 4
smoothSolver:  Solving for Uy, Initial residual = 0.0125547, Final residual = 0.000866594, No Iterations 4
GAMG:  Solving for p, Initial residual = 0.0416843, Final residual = 0.00296393, No Iterations 2
time step continuity errors : sum local = 0.00232485, global = -8.9404e-05, cumulative = 0.0385299
smoothSolver:  Solving for nuTilda, Initial residual = 0.00416215, Final residual = 0.000245493, No Iterations 4
ExecutionTime = 1.94 s  ClockTime = 2 s

Time = 124

smoothSolver:  Solving for Ux, Initial residual = 0.00695476, Final residual = 0.000470013, No Iterations 4
smoothSolver:  Solving for Uy, Initial residual = 0.0127189, Final residual = 0.000880656, No Iterations 4
GAMG:  Solving for p, Initial residual = 0.0425592, Final residual = 0.00296448, No Iterations 2
time step continuity errors : sum local = 0.00232668, global = -7.81731e-05, cumulative = 0.0384517
smoothSolver:  Solving for nuTilda, Initial residual = 0.00424875, Final residual = 0.000252547, No Iterations 4
ExecutionTime = 1.96 s  ClockTime = 2 s

Time = 125

smoothSolver:  Solving for Ux, Initial residual = 0.00714747, Final residual = 0.000483341, No Iterations 4
smoothSolver:  Solving for Uy, Initial residual = 0.0128809, Final residual = 0.000895523, No Iterations 4
GAMG:  Solving for p, Initial residual = 0.0432232, Final residual = 0.00296417, No Iterations 2
time step continuity errors : sum local = 0.00232824, global = -6.20429e-05, cumulative = 0.0383896
smoothSolver:  Solving for nuTilda, Initial residual = 0.00433142, Final residual = 0.00025917, No Iterations 4
ExecutionTime = 1.97 s  ClockTime = 2 s

Time = 126

smoothSolver:  Solving for Ux, Initial residual = 0.00733021, Final residual = 0.000495481, No Iterations 4
smoothSolver:  Solving for Uy, Initial residual = 0.0130481, Final residual = 0.000910597, No Iterations 4
GAMG:  Solving for p, Initial residual = 0.0436306, Final residual = 0.00296522, No Iterations 2
time step continuity errors : sum local = 0.00233087, global = -4.23382e-05, cumulative = 0.0383473
smoothSolver:  Solving for nuTilda, Initial residual = 0.00440238, Final residual = 0.000264667, No Iterations 4
ExecutionTime = 1.98 s  ClockTime = 2 s

Time = 127

smoothSolver:  Solving for Ux, Initial residual = 0.00749929, Final residual = 0.000506234, No Iterations 4
smoothSolver:  Solving for Uy, Initial residual = 0.0132166, Final residual = 0.000926253, No Iterations 4
GAMG:  Solving for p, Initial residual = 0.0439021, Final residual = 0.0029524, No Iterations 2
time step continuity errors : sum local = 0.00232389, global = -1.72362e-05, cumulative = 0.0383301
smoothSolver:  Solving for nuTilda, Initial residual = 0.00447114, Final residual = 0.000270006, No Iterations 4
ExecutionTime = 1.99 s  ClockTime = 2 s

Time = 128

smoothSolver:  Solving for Ux, Initial residual = 0.00765584, Final residual = 0.00051515, No Iterations 4
smoothSolver:  Solving for Uy, Initial residual = 0.0133938, Final residual = 0.000943081, No Iterations 4
GAMG:  Solving for p, Initial residual = 0.0444095, Final residual = 0.00291195, No Iterations 2
time step continuity errors : sum local = 0.00229597, global = 6.19523e-06, cumulative = 0.0383363
smoothSolver:  Solving for nuTilda, Initial residual = 0.00453485, Final residual = 0.000275077, No Iterations 4
ExecutionTime = 2.01 s  ClockTime = 2 s

Time = 129

smoothSolver:  Solving for Ux, Initial residual = 0.00779492, Final residual = 0.000522814, No Iterations 4
smoothSolver:  Solving for Uy, Initial residual = 0.0135771, Final residual = 0.000961037, No Iterations 4
GAMG:  Solving for p, Initial residual = 0.045032, Final residual = 0.00286916, No Iterations 2
time step continuity errors : sum local = 0.00226653, global = 3.0812e-05, cumulative = 0.0383671
smoothSolver:  Solving for nuTilda, Initial residual = 0.00459875, Final residual = 0.000280538, No Iterations 4
ExecutionTime = 2.02 s  ClockTime = 2 s

Time = 130

smoothSolver:  Solving for Ux, Initial residual = 0.0079139, Final residual = 0.000528406, No Iterations 4
smoothSolver:  Solving for Uy, Initial residual = 0.0137645, Final residual = 0.000979188, No Iterations 4
GAMG:  Solving for p, Initial residual = 0.0458241, Final residual = 0.00284635, No Iterations 2
time step continuity errors : sum local = 0.00225216, global = 5.57643e-05, cumulative = 0.0384228
smoothSolver:  Solving for nuTilda, Initial residual = 0.00465301, Final residual = 0.000285986, No Iterations 4
ExecutionTime = 2.04 s  ClockTime = 2 s

Time = 131

smoothSolver:  Solving for Ux, Initial residual = 0.00800861, Final residual = 0.000531896, No Iterations 4
smoothSolver:  Solving for Uy, Initial residual = 0.0139551, Final residual = 0.000997801, No Iterations 4
GAMG:  Solving for p, Initial residual = 0.0466448, Final residual = 0.00285323, No Iterations 2
time step continuity errors : sum local = 0.0022608, global = 8.08585e-05, cumulative = 0.0385037
smoothSolver:  Solving for nuTilda, Initial residual = 0.00470673, Final residual = 0.000291039, No Iterations 4
ExecutionTime = 2.05 s  ClockTime = 2 s

Time = 132

smoothSolver:  Solving for Ux, Initial residual = 0.0080876, Final residual = 0.000534505, No Iterations 4
smoothSolver:  Solving for Uy, Initial residual = 0.0141425, Final residual = 0.00101548, No Iterations 4
GAMG:  Solving for p, Initial residual = 0.0474354, Final residual = 0.00287492, No Iterations 2
time step continuity errors : sum local = 0.00228182, global = 0.000104908, cumulative = 0.0386086
smoothSolver:  Solving for nuTilda, Initial residual = 0.00476093, Final residual = 0.000294753, No Iterations 4
ExecutionTime = 2.07 s  ClockTime = 2 s

Time = 133

smoothSolver:  Solving for Ux, Initial residual = 0.00813947, Final residual = 0.000536659, No Iterations 4
smoothSolver:  Solving for Uy, Initial residual = 0.0143298, Final residual = 0.00103186, No Iterations 4
GAMG:  Solving for p, Initial residual = 0.0480713, Final residual = 0.00288921, No Iterations 2
time step continuity errors : sum local = 0.00229766, global = 0.000127059, cumulative = 0.0387357
smoothSolver:  Solving for nuTilda, Initial residual = 0.0048146, Final residual = 0.000297365, No Iterations 4
ExecutionTime = 2.08 s  ClockTime = 2 s

Time = 134

smoothSolver:  Solving for Ux, Initial residual = 0.00816024, Final residual = 0.000536906, No Iterations 4
smoothSolver:  Solving for Uy, Initial residual = 0.0145174, Final residual = 0.00104673, No Iterations 4
GAMG:  Solving for p, Initial residual = 0.0486853, Final residual = 0.00288348, No Iterations 2
time step continuity errors : sum local = 0.00229797, global = 0.000146686, cumulative = 0.0388824
smoothSolver:  Solving for nuTilda, Initial residual = 0.00486704, Final residual = 0.000302069, No Iterations 4
ExecutionTime = 2.09 s  ClockTime = 2 s

Time = 135

smoothSolver:  Solving for Ux, Initial residual = 0.0081672, Final residual = 0.000534419, No Iterations 4
smoothSolver:  Solving for Uy, Initial residual = 0.0147141, Final residual = 0.00106081, No Iterations 4
GAMG:  Solving for p, Initial residual = 0.0493348, Final residual = 0.00285158, No Iterations 2
time step continuity errors : sum local = 0.00227876, global = 0.00016333, cumulative = 0.0390457
smoothSolver:  Solving for nuTilda, Initial residual = 0.00491671, Final residual = 0.000306291, No Iterations 4
ExecutionTime = 2.11 s  ClockTime = 2 s

Time = 136

smoothSolver:  Solving for Ux, Initial residual = 0.00815423, Final residual = 0.000530958, No Iterations 4
smoothSolver:  Solving for Uy, Initial residual = 0.014922, Final residual = 0.00107399, No Iterations 4
GAMG:  Solving for p, Initial residual = 0.0500136, Final residual = 0.0028327, No Iterations 2
time step continuity errors : sum local = 0.00226984, global = 0.000172951, cumulative = 0.0392186
[...]

smoothSolver:  Solving for Ux, Initial residual = 3.90592e-05, Final residual = 2.49945e-06, No Iterations 4
smoothSolver:  Solving for Uy, Initial residual = 0.000101293, Final residual = 7.13878e-06, No Iterations 4
GAMG:  Solving for p, Initial residual = 0.000272126, Final residual = 1.51822e-05, No Iterations 2
time step continuity errors : sum local = 9.91472e-06, global = 6.80602e-07, cumulative = 0.0378354
smoothSolver:  Solving for nuTilda, Initial residual = 5.89307e-05, Final residual = 3.83768e-06, No Iterations 4
ExecutionTime = 7.08 s  ClockTime = 7 s

Time = 468

smoothSolver:  Solving for Ux, Initial residual = 3.91631e-05, Final residual = 2.50453e-06, No Iterations 4
smoothSolver:  Solving for Uy, Initial residual = 0.000101955, Final residual = 7.13891e-06, No Iterations 4
GAMG:  Solving for p, Initial residual = 0.000275417, Final residual = 1.51111e-05, No Iterations 2
time step continuity errors : sum local = 9.86839e-06, global = 6.51427e-07, cumulative = 0.0378361
smoothSolver:  Solving for nuTilda, Initial residual = 6.02534e-05, Final residual = 3.89366e-06, No Iterations 4
ExecutionTime = 7.1 s  ClockTime = 7 s

Time = 469

smoothSolver:  Solving for Ux, Initial residual = 3.92481e-05, Final residual = 2.50781e-06, No Iterations 4
smoothSolver:  Solving for Uy, Initial residual = 0.000102443, Final residual = 7.12797e-06, No Iterations 4
GAMG:  Solving for p, Initial residual = 0.000278336, Final residual = 1.47326e-05, No Iterations 2
time step continuity errors : sum local = 9.62135e-06, global = 6.29586e-07, cumulative = 0.0378367
smoothSolver:  Solving for nuTilda, Initial residual = 6.14137e-05, Final residual = 3.93989e-06, No Iterations 4
ExecutionTime = 7.11 s  ClockTime = 7 s

Time = 470

smoothSolver:  Solving for Ux, Initial residual = 3.92936e-05, Final residual = 2.50758e-06, No Iterations 4
smoothSolver:  Solving for Uy, Initial residual = 0.000102753, Final residual = 7.10573e-06, No Iterations 4
GAMG:  Solving for p, Initial residual = 0.000280753, Final residual = 1.41789e-05, No Iterations 2
time step continuity errors : sum local = 9.25987e-06, global = 6.00019e-07, cumulative = 0.0378373
smoothSolver:  Solving for nuTilda, Initial residual = 6.24193e-05, Final residual = 3.97675e-06, No Iterations 4
ExecutionTime = 7.12 s  ClockTime = 7 s

Time = 471

smoothSolver:  Solving for Ux, Initial residual = 3.92843e-05, Final residual = 2.5036e-06, No Iterations 4
smoothSolver:  Solving for Uy, Initial residual = 0.000102835, Final residual = 7.06892e-06, No Iterations 4
GAMG:  Solving for p, Initial residual = 0.000282683, Final residual = 1.36825e-05, No Iterations 2
time step continuity errors : sum local = 8.93578e-06, global = 5.60288e-07, cumulative = 0.0378379
smoothSolver:  Solving for nuTilda, Initial residual = 6.32741e-05, Final residual = 4.00355e-06, No Iterations 4
ExecutionTime = 7.14 s  ClockTime = 7 s

Time = 472

smoothSolver:  Solving for Ux, Initial residual = 3.92048e-05, Final residual = 2.49598e-06, No Iterations 4
smoothSolver:  Solving for Uy, Initial residual = 0.000102692, Final residual = 7.01917e-06, No Iterations 4
GAMG:  Solving for p, Initial residual = 0.000284158, Final residual = 1.34002e-05, No Iterations 2
time step continuity errors : sum local = 8.75156e-06, global = 5.16788e-07, cumulative = 0.0378384
smoothSolver:  Solving for nuTilda, Initial residual = 6.39629e-05, Final residual = 4.0204e-06, No Iterations 4
ExecutionTime = 7.16 s  ClockTime = 7 s

Time = 473

smoothSolver:  Solving for Ux, Initial residual = 3.90525e-05, Final residual = 2.48405e-06, No Iterations 4
smoothSolver:  Solving for Uy, Initial residual = 0.000102335, Final residual = 6.95699e-06, No Iterations 4
GAMG:  Solving for p, Initial residual = 0.00028507, Final residual = 1.33029e-05, No Iterations 2
time step continuity errors : sum local = 8.6881e-06, global = 4.76101e-07, cumulative = 0.0378388
smoothSolver:  Solving for nuTilda, Initial residual = 6.4475e-05, Final residual = 4.02742e-06, No Iterations 4
ExecutionTime = 7.17 s  ClockTime = 7 s

Time = 474

smoothSolver:  Solving for Ux, Initial residual = 3.88523e-05, Final residual = 2.46931e-06, No Iterations 4
smoothSolver:  Solving for Uy, Initial residual = 0.000101806, Final residual = 6.88427e-06, No Iterations 4
GAMG:  Solving for p, Initial residual = 0.00028544, Final residual = 1.32174e-05, No Iterations 2
time step continuity errors : sum local = 8.63233e-06, global = 4.35111e-07, cumulative = 0.0378393
smoothSolver:  Solving for nuTilda, Initial residual = 6.48121e-05, Final residual = 4.02473e-06, No Iterations 4
ExecutionTime = 7.19 s  ClockTime = 7 s

Time = 475

smoothSolver:  Solving for Ux, Initial residual = 3.86173e-05, Final residual = 2.45185e-06, No Iterations 4
smoothSolver:  Solving for Uy, Initial residual = 0.000101105, Final residual = 6.80266e-06, No Iterations 4
GAMG:  Solving for p, Initial residual = 0.000285231, Final residual = 2.84457e-05, No Iterations 1
time step continuity errors : sum local = 1.85782e-05, global = -2.06673e-06, cumulative = 0.0378372
smoothSolver:  Solving for nuTilda, Initial residual = 6.49914e-05, Final residual = 4.01359e-06, No Iterations 4
ExecutionTime = 7.2 s  ClockTime = 7 s

Time = 476

smoothSolver:  Solving for Ux, Initial residual = 3.81124e-05, Final residual = 2.41623e-06, No Iterations 4
smoothSolver:  Solving for Uy, Initial residual = 9.9357e-05, Final residual = 6.647e-06, No Iterations 4
GAMG:  Solving for p, Initial residual = 0.000289802, Final residual = 1.78249e-05, No Iterations 2
time step continuity errors : sum local = 1.16417e-05, global = 4.33175e-07, cumulative = 0.0378376
smoothSolver:  Solving for nuTilda, Initial residual = 6.49767e-05, Final residual = 3.99165e-06, No Iterations 4
ExecutionTime = 7.21 s  ClockTime = 7 s

Time = 477

smoothSolver:  Solving for Ux, Initial residual = 3.79205e-05, Final residual = 2.40222e-06, No Iterations 4
smoothSolver:  Solving for Uy, Initial residual = 9.88825e-05, Final residual = 6.59026e-06, No Iterations 4
GAMG:  Solving for p, Initial residual = 0.000287239, Final residual = 1.69361e-05, No Iterations 2
time step continuity errors : sum local = 1.10613e-05, global = 5.12451e-07, cumulative = 0.0378382
smoothSolver:  Solving for nuTilda, Initial residual = 6.48084e-05, Final residual = 3.96167e-06, No Iterations 4
ExecutionTime = 7.22 s  ClockTime = 7 s

Time = 478

smoothSolver:  Solving for Ux, Initial residual = 3.76787e-05, Final residual = 2.38563e-06, No Iterations 4
smoothSolver:  Solving for Uy, Initial residual = 9.83535e-05, Final residual = 6.53272e-06, No Iterations 4
GAMG:  Solving for p, Initial residual = 0.000282703, Final residual = 1.31913e-05, No Iterations 2
time step continuity errors : sum local = 8.61563e-06, global = 5.2656e-07, cumulative = 0.0378387
smoothSolver:  Solving for nuTilda, Initial residual = 6.4483e-05, Final residual = 3.92295e-06, No Iterations 4
ExecutionTime = 7.24 s  ClockTime = 7 s

Time = 479

smoothSolver:  Solving for Ux, Initial residual = 3.72626e-05, Final residual = 2.35883e-06, No Iterations 4
smoothSolver:  Solving for Uy, Initial residual = 9.73735e-05, Final residual = 6.44407e-06, No Iterations 4
GAMG:  Solving for p, Initial residual = 0.000278721, Final residual = 2.1489e-05, No Iterations 1
time step continuity errors : sum local = 1.40353e-05, global = -1.01103e-06, cumulative = 0.0378377
smoothSolver:  Solving for nuTilda, Initial residual = 6.40202e-05, Final residual = 3.87743e-06, No Iterations 4
ExecutionTime = 7.25 s  ClockTime = 7 s

Time = 480

smoothSolver:  Solving for Ux, Initial residual = 3.64979e-05, Final residual = 2.30965e-06, No Iterations 4
smoothSolver:  Solving for Uy, Initial residual = 9.50443e-05, Final residual = 6.2584e-06, No Iterations 4
GAMG:  Solving for p, Initial residual = 0.00027765, Final residual = 2.71044e-05, No Iterations 1
time step continuity errors : sum local = 1.77031e-05, global = -1.66156e-06, cumulative = 0.037836
smoothSolver:  Solving for nuTilda, Initial residual = 6.3408e-05, Final residual = 3.82403e-06, No Iterations 4
ExecutionTime = 7.26 s  ClockTime = 7 s

Time = 481

smoothSolver:  Solving for Ux, Initial residual = 3.57563e-05, Final residual = 2.26281e-06, No Iterations 4
smoothSolver:  Solving for Uy, Initial residual = 9.27518e-05, Final residual = 6.07965e-06, No Iterations 4
GAMG:  Solving for p, Initial residual = 0.000281326, Final residual = 1.67874e-05, No Iterations 2
time step continuity errors : sum local = 1.09646e-05, global = 5.54137e-07, cumulative = 0.0378366
smoothSolver:  Solving for nuTilda, Initial residual = 6.26507e-05, Final residual = 3.76296e-06, No Iterations 4
ExecutionTime = 7.28 s  ClockTime = 7 s

Time = 482

smoothSolver:  Solving for Ux, Initial residual = 3.52946e-05, Final residual = 2.23527e-06, No Iterations 4
smoothSolver:  Solving for Uy, Initial residual = 9.14494e-05, Final residual = 5.97542e-06, No Iterations 4
GAMG:  Solving for p, Initial residual = 0.000274192, Final residual = 1.59607e-05, No Iterations 2
time step continuity errors : sum local = 1.04248e-05, global = 5.58613e-07, cumulative = 0.0378371
smoothSolver:  Solving for nuTilda, Initial residual = 6.17719e-05, Final residual = 3.69582e-06, No Iterations 4
ExecutionTime = 7.29 s  ClockTime = 7 s

Time = 483

smoothSolver:  Solving for Ux, Initial residual = 3.47918e-05, Final residual = 2.20499e-06, No Iterations 4
smoothSolver:  Solving for Uy, Initial residual = 9.01506e-05, Final residual = 5.87132e-06, No Iterations 4
GAMG:  Solving for p, Initial residual = 0.000266445, Final residual = 2.55762e-05, No Iterations 1
time step continuity errors : sum local = 1.67054e-05, global = -1.95016e-06, cumulative = 0.0378352
smoothSolver:  Solving for nuTilda, Initial residual = 6.07868e-05, Final residual = 3.6233e-06, No Iterations 4
ExecutionTime = 7.3 s  ClockTime = 7 s

Time = 484

smoothSolver:  Solving for Ux, Initial residual = 3.39728e-05, Final residual = 2.15371e-06, No Iterations 4
smoothSolver:  Solving for Uy, Initial residual = 8.78155e-05, Final residual = 5.69737e-06, No Iterations 4
GAMG:  Solving for p, Initial residual = 0.000263107, Final residual = 1.31773e-05, No Iterations 2
time step continuity errors : sum local = 8.60701e-06, global = 5.21628e-07, cumulative = 0.0378357
smoothSolver:  Solving for nuTilda, Initial residual = 5.96585e-05, Final residual = 3.54334e-06, No Iterations 4
ExecutionTime = 7.32 s  ClockTime = 7 s

Time = 485

smoothSolver:  Solving for Ux, Initial residual = 3.32871e-05, Final residual = 2.11182e-06, No Iterations 4
smoothSolver:  Solving for Uy, Initial residual = 8.60125e-05, Final residual = 5.56496e-06, No Iterations 4
GAMG:  Solving for p, Initial residual = 0.000257321, Final residual = 2.3351e-05, No Iterations 1
time step continuity errors : sum local = 1.52523e-05, global = -1.86059e-06, cumulative = 0.0378338
smoothSolver:  Solving for nuTilda, Initial residual = 5.84526e-05, Final residual = 3.46016e-06, No Iterations 4
ExecutionTime = 7.33 s  ClockTime = 7 s

Time = 486

smoothSolver:  Solving for Ux, Initial residual = 3.23932e-05, Final residual = 2.05609e-06, No Iterations 4
smoothSolver:  Solving for Uy, Initial residual = 8.35023e-05, Final residual = 5.38695e-06, No Iterations 4
GAMG:  Solving for p, Initial residual = 0.000254704, Final residual = 1.31615e-05, No Iterations 2
time step continuity errors : sum local = 8.59677e-06, global = 5.76175e-07, cumulative = 0.0378344
smoothSolver:  Solving for nuTilda, Initial residual = 5.71245e-05, Final residual = 3.37031e-06, No Iterations 4
ExecutionTime = 7.35 s  ClockTime = 7 s

Time = 487

smoothSolver:  Solving for Ux, Initial residual = 3.16382e-05, Final residual = 2.01048e-06, No Iterations 4
smoothSolver:  Solving for Uy, Initial residual = 8.13997e-05, Final residual = 5.2403e-06, No Iterations 4
GAMG:  Solving for p, Initial residual = 0.000247264, Final residual = 1.17461e-05, No Iterations 2
time step continuity errors : sum local = 7.67237e-06, global = 5.54055e-07, cumulative = 0.037835
smoothSolver:  Solving for nuTilda, Initial residual = 5.57209e-05, Final residual = 3.27783e-06, No Iterations 4
ExecutionTime = 7.37 s  ClockTime = 7 s

Time = 488

smoothSolver:  Solving for Ux, Initial residual = 3.08572e-05, Final residual = 1.96266e-06, No Iterations 4
smoothSolver:  Solving for Uy, Initial residual = 7.92151e-05, Final residual = 5.091e-06, No Iterations 4
GAMG:  Solving for p, Initial residual = 0.000239632, Final residual = 1.99093e-05, No Iterations 1
time step continuity errors : sum local = 1.30045e-05, global = -1.25391e-06, cumulative = 0.0378337
smoothSolver:  Solving for nuTilda, Initial residual = 5.42485e-05, Final residual = 3.18292e-06, No Iterations 4
ExecutionTime = 7.38 s  ClockTime = 7 s

Time = 489

smoothSolver:  Solving for Ux, Initial residual = 2.99278e-05, Final residual = 1.9036e-06, No Iterations 4
smoothSolver:  Solving for Uy, Initial residual = 7.66823e-05, Final residual = 4.91939e-06, No Iterations 4
GAMG:  Solving for p, Initial residual = 0.000235299, Final residual = 1.1544e-05, No Iterations 2
time step continuity errors : sum local = 7.54044e-06, global = 6.04686e-07, cumulative = 0.0378343
smoothSolver:  Solving for nuTilda, Initial residual = 5.26881e-05, Final residual = 3.0841e-06, No Iterations 4
ExecutionTime = 7.39 s  ClockTime = 7 s

Time = 490

smoothSolver:  Solving for Ux, Initial residual = 2.91178e-05, Final residual = 1.85333e-06, No Iterations 4
smoothSolver:  Solving for Uy, Initial residual = 7.44574e-05, Final residual = 4.77151e-06, No Iterations 4
GAMG:  Solving for p, Initial residual = 0.000228788, Final residual = 2.27904e-05, No Iterations 1
time step continuity errors : sum local = 1.48865e-05, global = -1.9162e-06, cumulative = 0.0378324
smoothSolver:  Solving for nuTilda, Initial residual = 5.10857e-05, Final residual = 2.98444e-06, No Iterations 4
ExecutionTime = 7.41 s  ClockTime = 7 s

Time = 491

smoothSolver:  Solving for Ux, Initial residual = 2.8231e-05, Final residual = 1.79704e-06, No Iterations 4
smoothSolver:  Solving for Uy, Initial residual = 7.21364e-05, Final residual = 4.62089e-06, No Iterations 4
GAMG:  Solving for p, Initial residual = 0.000225634, Final residual = 1.39272e-05, No Iterations 2
time step continuity errors : sum local = 9.09717e-06, global = 8.53419e-07, cumulative = 0.0378333
smoothSolver:  Solving for nuTilda, Initial residual = 4.94064e-05, Final residual = 2.88149e-06, No Iterations 4
ExecutionTime = 7.42 s  ClockTime = 7 s

Time = 492

smoothSolver:  Solving for Ux, Initial residual = 2.74208e-05, Final residual = 1.74777e-06, No Iterations 4
smoothSolver:  Solving for Uy, Initial residual = 7.02518e-05, Final residual = 4.50104e-06, No Iterations 4
GAMG:  Solving for p, Initial residual = 0.000217494, Final residual = 1.23515e-05, No Iterations 2
time step continuity errors : sum local = 8.06797e-06, global = 8.83641e-07, cumulative = 0.0378341
smoothSolver:  Solving for nuTilda, Initial residual = 4.77048e-05, Final residual = 2.7781e-06, No Iterations 4
ExecutionTime = 7.43 s  ClockTime = 7 s

Time = 493

smoothSolver:  Solving for Ux, Initial residual = 2.65932e-05, Final residual = 1.6972e-06, No Iterations 4
smoothSolver:  Solving for Uy, Initial residual = 6.84101e-05, Final residual = 4.38412e-06, No Iterations 4
GAMG:  Solving for p, Initial residual = 0.000209962, Final residual = 1.76984e-05, No Iterations 1
time step continuity errors : sum local = 1.15606e-05, global = -1.20579e-06, cumulative = 0.0378329
smoothSolver:  Solving for nuTilda, Initial residual = 4.59935e-05, Final residual = 2.67425e-06, No Iterations 4
ExecutionTime = 7.45 s  ClockTime = 7 s

Time = 494

smoothSolver:  Solving for Ux, Initial residual = 2.57176e-05, Final residual = 1.64055e-06, No Iterations 4
smoothSolver:  Solving for Uy, Initial residual = 6.62208e-05, Final residual = 4.25078e-06, No Iterations 4
GAMG:  Solving for p, Initial residual = 0.000203953, Final residual = 1.07505e-05, No Iterations 2
time step continuity errors : sum local = 7.02229e-06, global = 9.36717e-07, cumulative = 0.0378339
smoothSolver:  Solving for nuTilda, Initial residual = 4.42639e-05, Final residual = 2.56977e-06, No Iterations 4
ExecutionTime = 7.46 s  ClockTime = 7 s

Time = 495

smoothSolver:  Solving for Ux, Initial residual = 2.49115e-05, Final residual = 1.58916e-06, No Iterations 4
smoothSolver:  Solving for Uy, Initial residual = 6.42781e-05, Final residual = 4.1334e-06, No Iterations 4
GAMG:  Solving for p, Initial residual = 0.000197444, Final residual = 1.9129e-05, No Iterations 1
time step continuity errors : sum local = 1.24953e-05, global = -1.62771e-06, cumulative = 0.0378322
smoothSolver:  Solving for nuTilda, Initial residual = 4.25593e-05, Final residual = 2.4671e-06, No Iterations 4
ExecutionTime = 7.48 s  ClockTime = 7 s

Time = 496

smoothSolver:  Solving for Ux, Initial residual = 2.4151e-05, Final residual = 1.53801e-06, No Iterations 4
smoothSolver:  Solving for Uy, Initial residual = 6.23309e-05, Final residual = 4.02101e-06, No Iterations 4
GAMG:  Solving for p, Initial residual = 0.000193298, Final residual = 1.27184e-05, No Iterations 2
time step continuity errors : sum local = 8.30784e-06, global = 1.22937e-06, cumulative = 0.0378335
smoothSolver:  Solving for nuTilda, Initial residual = 4.08584e-05, Final residual = 2.36452e-06, No Iterations 4
ExecutionTime = 7.49 s  ClockTime = 7 s

Time = 497

smoothSolver:  Solving for Ux, Initial residual = 2.34238e-05, Final residual = 1.49223e-06, No Iterations 4
smoothSolver:  Solving for Uy, Initial residual = 6.06437e-05, Final residual = 3.92288e-06, No Iterations 4
GAMG:  Solving for p, Initial residual = 0.000185509, Final residual = 1.18051e-05, No Iterations 2
time step continuity errors : sum local = 7.71124e-06, global = 1.18645e-06, cumulative = 0.0378347
smoothSolver:  Solving for nuTilda, Initial residual = 3.91897e-05, Final residual = 2.26569e-06, No Iterations 4
ExecutionTime = 7.5 s  ClockTime = 7 s

Time = 498

smoothSolver:  Solving for Ux, Initial residual = 2.27759e-05, Final residual = 1.44978e-06, No Iterations 4
smoothSolver:  Solving for Uy, Initial residual = 5.90603e-05, Final residual = 3.83743e-06, No Iterations 4
GAMG:  Solving for p, Initial residual = 0.000178129, Final residual = 1.70079e-05, No Iterations 1
time step continuity errors : sum local = 1.11098e-05, global = -1.54115e-06, cumulative = 0.0378331
smoothSolver:  Solving for nuTilda, Initial residual = 3.75714e-05, Final residual = 2.17094e-06, No Iterations 4
ExecutionTime = 7.51 s  ClockTime = 8 s

Time = 499

smoothSolver:  Solving for Ux, Initial residual = 2.21398e-05, Final residual = 1.40428e-06, No Iterations 4
smoothSolver:  Solving for Uy, Initial residual = 5.74007e-05, Final residual = 3.75079e-06, No Iterations 4
GAMG:  Solving for p, Initial residual = 0.000172563, Final residual = 1.10143e-05, No Iterations 2
time step continuity errors : sum local = 7.19476e-06, global = 1.2921e-06, cumulative = 0.0378344
smoothSolver:  Solving for nuTilda, Initial residual = 3.60169e-05, Final residual = 2.08099e-06, No Iterations 4
ExecutionTime = 7.54 s  ClockTime = 8 s

Time = 500

smoothSolver:  Solving for Ux, Initial residual = 2.15954e-05, Final residual = 1.36638e-06, No Iterations 4
smoothSolver:  Solving for Uy, Initial residual = 5.58878e-05, Final residual = 3.67387e-06, No Iterations 4
GAMG:  Solving for p, Initial residual = 0.000166632, Final residual = 1.00742e-05, No Iterations 2
time step continuity errors : sum local = 6.5807e-06, global = 1.19962e-06, cumulative = 0.0378356
smoothSolver:  Solving for nuTilda, Initial residual = 3.45349e-05, Final residual = 1.99721e-06, No Iterations 4
ExecutionTime = 7.58 s  ClockTime = 8 s

forceCoeffs forces write:
    Cm    = 0.0575813
    Cd    = -0.94776
    Cl    = 0.0437445
    Cl(f) = 0.0794536
    Cl(r) = -0.0357091

End

